$DATA1 SOURCE='HSPICE' VERSION='I-2013.12-SP1-1 32-BIT'
$OPTION MEASFORM=1
.TITLE '.temp 110'
index topn sinkn ratio01 ratio10 delay1 delay2 delay area temper alter#
1    0.1000    0.1000    1.1000    1.1000    failed  8.408e-10    failed  6.300e-07   25.0000 1
2    0.3000    0.1000    1.1000    1.1000    failed  4.595e-10    failed  1.250e-06   25.0000 1
3    0.6000    0.1000    1.1000    1.1000    failed  3.070e-10    failed  2.180e-06   25.0000 1
4    0.9000    0.1000    1.1000    1.1000    failed  2.386e-10    failed  3.110e-06   25.0000 1
5    1.0000    0.1000    1.1000    1.1000    failed  2.237e-10    failed  3.420e-06   25.0000 1
6    1.2000    0.1000    1.1000    1.1000    failed  2.015e-10    failed  4.040e-06   25.0000 1
7    1.5000    0.1000    1.1000    1.1000    failed  1.796e-10    failed  4.970e-06   25.0000 1
8    1.8000    0.1000    1.1000    1.1000    failed  1.642e-10    failed  5.900e-06   25.0000 1
9    2.1000    0.1000    1.1000    1.1000    failed  1.537e-10    failed  6.830e-06   25.0000 1
10    2.4000    0.1000    1.1000    1.1000    failed  1.462e-10    failed  7.760e-06   25.0000 1
11    2.7000    0.1000    1.1000    1.1000    failed  1.417e-10    failed  8.690e-06   25.0000 1
12    3.0000    0.1000    1.1000    1.1000    failed  1.358e-10    failed  9.620e-06   25.0000 1
13    0.1000    0.3000    1.1000    1.1000    failed    failed    failed  1.270e-06   25.0000 1
14    0.3000    0.3000    1.1000    1.1000    failed    failed    failed  1.890e-06   25.0000 1
15    0.6000    0.3000    1.1000    1.1000    failed    failed    failed  2.820e-06   25.0000 1
16    0.9000    0.3000    1.1000    1.1000    failed    failed    failed  3.750e-06   25.0000 1
17    1.0000    0.3000    1.1000    1.1000    failed    failed    failed  4.060e-06   25.0000 1
18    1.2000    0.3000    1.1000    1.1000    failed    failed    failed  4.680e-06   25.0000 1
19    1.5000    0.3000    1.1000    1.1000    failed    failed    failed  5.610e-06   25.0000 1
20    1.8000    0.3000    1.1000    1.1000    failed  5.919e-09    failed  6.540e-06   25.0000 1
21    2.1000    0.3000    1.1000    1.1000    failed  4.240e-09    failed  7.470e-06   25.0000 1
22    2.4000    0.3000    1.1000    1.1000    failed  3.551e-09    failed  8.400e-06   25.0000 1
23    2.7000    0.3000    1.1000    1.1000    failed  3.164e-09    failed  9.330e-06   25.0000 1
24    3.0000    0.3000    1.1000    1.1000    failed  2.914e-09    failed  1.026e-05   25.0000 1
25    0.1000    0.6000    1.1000    1.1000    failed    failed    failed  2.230e-06   25.0000 1
26    0.3000    0.6000    1.1000    1.1000    failed    failed    failed  2.850e-06   25.0000 1
27    0.6000    0.6000    1.1000    1.1000    failed    failed    failed  3.780e-06   25.0000 1
28    0.9000    0.6000    1.1000    1.1000    failed    failed    failed  4.710e-06   25.0000 1
29    1.0000    0.6000    1.1000    1.1000    failed    failed    failed  5.020e-06   25.0000 1
30    1.2000    0.6000    1.1000    1.1000    failed    failed    failed  5.640e-06   25.0000 1
31    1.5000    0.6000    1.1000    1.1000    failed    failed    failed  6.570e-06   25.0000 1
32    1.8000    0.6000    1.1000    1.1000    failed  5.924e-09    failed  7.500e-06   25.0000 1
33    2.1000    0.6000    1.1000    1.1000    failed  4.243e-09    failed  8.430e-06   25.0000 1
34    2.4000    0.6000    1.1000    1.1000    failed  3.553e-09    failed  9.360e-06   25.0000 1
35    2.7000    0.6000    1.1000    1.1000    failed  3.165e-09    failed  1.029e-05   25.0000 1
36    3.0000    0.6000    1.1000    1.1000    failed  2.914e-09    failed  1.122e-05   25.0000 1
37    0.1000    0.9000    1.1000    1.1000    failed    failed    failed  3.190e-06   25.0000 1
38    0.3000    0.9000    1.1000    1.1000    failed    failed    failed  3.810e-06   25.0000 1
39    0.6000    0.9000    1.1000    1.1000    failed    failed    failed  4.740e-06   25.0000 1
40    0.9000    0.9000    1.1000    1.1000    failed    failed    failed  5.670e-06   25.0000 1
41    1.0000    0.9000    1.1000    1.1000    failed    failed    failed  5.980e-06   25.0000 1
42    1.2000    0.9000    1.1000    1.1000    failed    failed    failed  6.600e-06   25.0000 1
43    1.5000    0.9000    1.1000    1.1000    failed    failed    failed  7.530e-06   25.0000 1
44    1.8000    0.9000    1.1000    1.1000    failed  5.928e-09    failed  8.460e-06   25.0000 1
45    2.1000    0.9000    1.1000    1.1000    failed  4.244e-09    failed  9.390e-06   25.0000 1
46    2.4000    0.9000    1.1000    1.1000    failed  3.554e-09    failed  1.032e-05   25.0000 1
47    2.7000    0.9000    1.1000    1.1000    failed  3.167e-09    failed  1.125e-05   25.0000 1
48    3.0000    0.9000    1.1000    1.1000    failed  2.915e-09    failed  1.218e-05   25.0000 1
49    0.1000    1.0000    1.1000    1.1000    failed    failed    failed  3.510e-06   25.0000 1
50    0.3000    1.0000    1.1000    1.1000    failed    failed    failed  4.130e-06   25.0000 1
51    0.6000    1.0000    1.1000    1.1000    failed    failed    failed  5.060e-06   25.0000 1
52    0.9000    1.0000    1.1000    1.1000    failed    failed    failed  5.990e-06   25.0000 1
53    1.0000    1.0000    1.1000    1.1000    failed    failed    failed  6.300e-06   25.0000 1
54    1.2000    1.0000    1.1000    1.1000    failed    failed    failed  6.920e-06   25.0000 1
55    1.5000    1.0000    1.1000    1.1000    failed    failed    failed  7.850e-06   25.0000 1
56    1.8000    1.0000    1.1000    1.1000    failed  5.928e-09    failed  8.780e-06   25.0000 1
57    2.1000    1.0000    1.1000    1.1000    failed  4.244e-09    failed  9.710e-06   25.0000 1
58    2.4000    1.0000    1.1000    1.1000    failed  3.554e-09    failed  1.064e-05   25.0000 1
59    2.7000    1.0000    1.1000    1.1000    failed  3.166e-09    failed  1.157e-05   25.0000 1
60    3.0000    1.0000    1.1000    1.1000    failed  2.915e-09    failed  1.250e-05   25.0000 1
61    0.1000    1.2000    1.1000    1.1000    failed    failed    failed  4.150e-06   25.0000 1
62    0.3000    1.2000    1.1000    1.1000    failed    failed    failed  4.770e-06   25.0000 1
63    0.6000    1.2000    1.1000    1.1000    failed    failed    failed  5.700e-06   25.0000 1
64    0.9000    1.2000    1.1000    1.1000    failed    failed    failed  6.630e-06   25.0000 1
65    1.0000    1.2000    1.1000    1.1000    failed    failed    failed  6.940e-06   25.0000 1
66    1.2000    1.2000    1.1000    1.1000    failed    failed    failed  7.560e-06   25.0000 1
67    1.5000    1.2000    1.1000    1.1000    failed    failed    failed  8.490e-06   25.0000 1
68    1.8000    1.2000    1.1000    1.1000    failed  5.932e-09    failed  9.420e-06   25.0000 1
69    2.1000    1.2000    1.1000    1.1000    failed  4.241e-09    failed  1.035e-05   25.0000 1
70    2.4000    1.2000    1.1000    1.1000    failed  3.555e-09    failed  1.128e-05   25.0000 1
71    2.7000    1.2000    1.1000    1.1000    failed  3.166e-09    failed  1.221e-05   25.0000 1
72    3.0000    1.2000    1.1000    1.1000    failed  2.915e-09    failed  1.314e-05   25.0000 1
73    0.1000    1.5000    1.1000    1.1000  5.683e-09    failed    failed  5.110e-06   25.0000 1
74    0.3000    1.5000    1.1000    1.1000  5.688e-09    failed    failed  5.730e-06   25.0000 1
75    0.6000    1.5000    1.1000    1.1000  5.695e-09    failed    failed  6.660e-06   25.0000 1
76    0.9000    1.5000    1.1000    1.1000  5.703e-09    failed    failed  7.590e-06   25.0000 1
77    1.0000    1.5000    1.1000    1.1000  5.704e-09    failed    failed  7.900e-06   25.0000 1
78    1.2000    1.5000    1.1000    1.1000  5.708e-09    failed    failed  8.520e-06   25.0000 1
79    1.5000    1.5000    1.1000    1.1000  5.716e-09    failed    failed  9.450e-06   25.0000 1
80    1.8000    1.5000    1.1000    1.1000  5.722e-09  5.809e-09  5.809e-09  1.038e-05   25.0000 1
81    2.1000    1.5000    1.1000    1.1000  5.729e-09  4.162e-09  5.729e-09  1.131e-05   25.0000 1
82    2.4000    1.5000    1.1000    1.1000  5.735e-09  3.493e-09  5.735e-09  1.224e-05   25.0000 1
83    2.7000    1.5000    1.1000    1.1000  5.742e-09  3.122e-09  5.742e-09  1.317e-05   25.0000 1
84    3.0000    1.5000    1.1000    1.1000  5.749e-09  2.881e-09  5.749e-09  1.410e-05   25.0000 1
85    0.1000    1.8000    1.1000    1.1000  4.111e-09    failed    failed  6.070e-06   25.0000 1
86    0.3000    1.8000    1.1000    1.1000  4.112e-09    failed    failed  6.690e-06   25.0000 1
87    0.6000    1.8000    1.1000    1.1000  4.115e-09    failed    failed  7.620e-06   25.0000 1
88    0.9000    1.8000    1.1000    1.1000  4.118e-09    failed    failed  8.550e-06   25.0000 1
89    1.0000    1.8000    1.1000    1.1000  4.119e-09    failed    failed  8.860e-06   25.0000 1
90    1.2000    1.8000    1.1000    1.1000  4.120e-09    failed    failed  9.480e-06   25.0000 1
91    1.5000    1.8000    1.1000    1.1000  4.123e-09    failed    failed  1.041e-05   25.0000 1
92    1.8000    1.8000    1.1000    1.1000  4.126e-09  5.812e-09  5.812e-09  1.134e-05   25.0000 1
93    2.1000    1.8000    1.1000    1.1000  4.130e-09  4.164e-09  4.164e-09  1.227e-05   25.0000 1
94    2.4000    1.8000    1.1000    1.1000  4.132e-09  3.495e-09  4.132e-09  1.320e-05   25.0000 1
95    2.7000    1.8000    1.1000    1.1000  4.134e-09  3.122e-09  4.134e-09  1.413e-05   25.0000 1
96    3.0000    1.8000    1.1000    1.1000  4.137e-09  2.881e-09  4.137e-09  1.506e-05   25.0000 1
97    0.1000    2.1000    1.1000    1.1000  3.464e-09    failed    failed  7.030e-06   25.0000 1
98    0.3000    2.1000    1.1000    1.1000  3.464e-09    failed    failed  7.650e-06   25.0000 1
99    0.6000    2.1000    1.1000    1.1000  3.466e-09    failed    failed  8.580e-06   25.0000 1
100    0.9000    2.1000    1.1000    1.1000  3.470e-09    failed    failed  9.510e-06   25.0000 1
101    1.0000    2.1000    1.1000    1.1000  3.471e-09    failed    failed  9.820e-06   25.0000 1
102    1.2000    2.1000    1.1000    1.1000  3.470e-09    failed    failed  1.044e-05   25.0000 1
103    1.5000    2.1000    1.1000    1.1000  3.471e-09    failed    failed  1.137e-05   25.0000 1
104    1.8000    2.1000    1.1000    1.1000  3.473e-09  5.815e-09  5.815e-09  1.230e-05   25.0000 1
105    2.1000    2.1000    1.1000    1.1000  3.475e-09  4.166e-09  4.166e-09  1.323e-05   25.0000 1
106    2.4000    2.1000    1.1000    1.1000  3.476e-09  3.496e-09  3.496e-09  1.416e-05   25.0000 1
107    2.7000    2.1000    1.1000    1.1000  3.479e-09  3.124e-09  3.479e-09  1.509e-05   25.0000 1
108    3.0000    2.1000    1.1000    1.1000  3.480e-09  2.882e-09  3.480e-09  1.602e-05   25.0000 1
109    0.1000    2.4000    1.1000    1.1000  3.101e-09    failed    failed  7.990e-06   25.0000 1
110    0.3000    2.4000    1.1000    1.1000  3.100e-09    failed    failed  8.610e-06   25.0000 1
111    0.6000    2.4000    1.1000    1.1000  3.103e-09    failed    failed  9.540e-06   25.0000 1
112    0.9000    2.4000    1.1000    1.1000  3.104e-09    failed    failed  1.047e-05   25.0000 1
113    1.0000    2.4000    1.1000    1.1000  3.104e-09    failed    failed  1.078e-05   25.0000 1
114    1.2000    2.4000    1.1000    1.1000  3.105e-09    failed    failed  1.140e-05   25.0000 1
115    1.5000    2.4000    1.1000    1.1000  3.107e-09    failed    failed  1.233e-05   25.0000 1
116    1.8000    2.4000    1.1000    1.1000  3.107e-09  5.820e-09  5.820e-09  1.326e-05   25.0000 1
117    2.1000    2.4000    1.1000    1.1000  3.108e-09  4.166e-09  4.166e-09  1.419e-05   25.0000 1
118    2.4000    2.4000    1.1000    1.1000  3.109e-09  3.496e-09  3.496e-09  1.512e-05   25.0000 1
119    2.7000    2.4000    1.1000    1.1000  3.112e-09  3.125e-09  3.125e-09  1.605e-05   25.0000 1
120    3.0000    2.4000    1.1000    1.1000  3.114e-09  2.883e-09  3.114e-09  1.698e-05   25.0000 1
121    0.1000    2.7000    1.1000    1.1000  2.864e-09    failed    failed  8.950e-06   25.0000 1
122    0.3000    2.7000    1.1000    1.1000  2.865e-09    failed    failed  9.570e-06   25.0000 1
123    0.6000    2.7000    1.1000    1.1000  2.867e-09    failed    failed  1.050e-05   25.0000 1
124    0.9000    2.7000    1.1000    1.1000  2.868e-09    failed    failed  1.143e-05   25.0000 1
125    1.0000    2.7000    1.1000    1.1000  2.868e-09    failed    failed  1.174e-05   25.0000 1
126    1.2000    2.7000    1.1000    1.1000  2.869e-09    failed    failed  1.236e-05   25.0000 1
127    1.5000    2.7000    1.1000    1.1000  2.870e-09    failed    failed  1.329e-05   25.0000 1
128    1.8000    2.7000    1.1000    1.1000  2.871e-09  5.823e-09  5.823e-09  1.422e-05   25.0000 1
129    2.1000    2.7000    1.1000    1.1000  2.872e-09  4.168e-09  4.168e-09  1.515e-05   25.0000 1
130    2.4000    2.7000    1.1000    1.1000  2.874e-09  3.498e-09  3.498e-09  1.608e-05   25.0000 1
131    2.7000    2.7000    1.1000    1.1000  2.874e-09  3.125e-09  3.125e-09  1.701e-05   25.0000 1
132    3.0000    2.7000    1.1000    1.1000  2.875e-09  2.884e-09  2.884e-09  1.794e-05   25.0000 1
133    0.1000    3.0000    1.1000    1.1000  2.697e-09    failed    failed  9.910e-06   25.0000 1
134    0.3000    3.0000    1.1000    1.1000  2.699e-09    failed    failed  1.053e-05   25.0000 1
135    0.6000    3.0000    1.1000    1.1000  2.700e-09    failed    failed  1.146e-05   25.0000 1
136    0.9000    3.0000    1.1000    1.1000  2.700e-09    failed    failed  1.239e-05   25.0000 1
137    1.0000    3.0000    1.1000    1.1000  2.700e-09    failed    failed  1.270e-05   25.0000 1
138    1.2000    3.0000    1.1000    1.1000  2.702e-09    failed    failed  1.332e-05   25.0000 1
139    1.5000    3.0000    1.1000    1.1000  2.703e-09    failed    failed  1.425e-05   25.0000 1
140    1.8000    3.0000    1.1000    1.1000  2.704e-09  5.827e-09  5.827e-09  1.518e-05   25.0000 1
141    2.1000    3.0000    1.1000    1.1000  2.704e-09  4.171e-09  4.171e-09  1.611e-05   25.0000 1
142    2.4000    3.0000    1.1000    1.1000  2.705e-09  3.499e-09  3.499e-09  1.704e-05   25.0000 1
143    2.7000    3.0000    1.1000    1.1000  2.706e-09  3.125e-09  3.125e-09  1.797e-05   25.0000 1
144    3.0000    3.0000    1.1000    1.1000  2.707e-09  2.885e-09  2.885e-09  1.890e-05   25.0000 1
145    0.1000    0.1000    1.3000    1.1000    failed  8.617e-10    failed  6.700e-07   25.0000 1
146    0.3000    0.1000    1.3000    1.1000    failed  4.723e-10    failed  1.290e-06   25.0000 1
147    0.6000    0.1000    1.3000    1.1000    failed  3.160e-10    failed  2.220e-06   25.0000 1
148    0.9000    0.1000    1.3000    1.1000    failed  2.471e-10    failed  3.150e-06   25.0000 1
149    1.0000    0.1000    1.3000    1.1000    failed  2.307e-10    failed  3.460e-06   25.0000 1
150    1.2000    0.1000    1.3000    1.1000    failed  2.088e-10    failed  4.080e-06   25.0000 1
151    1.5000    0.1000    1.3000    1.1000    failed  1.851e-10    failed  5.010e-06   25.0000 1
152    1.8000    0.1000    1.3000    1.1000    failed  1.693e-10    failed  5.940e-06   25.0000 1
153    2.1000    0.1000    1.3000    1.1000    failed  1.598e-10    failed  6.870e-06   25.0000 1
154    2.4000    0.1000    1.3000    1.1000    failed  1.520e-10    failed  7.800e-06   25.0000 1
155    2.7000    0.1000    1.3000    1.1000    failed  1.448e-10    failed  8.730e-06   25.0000 1
156    3.0000    0.1000    1.3000    1.1000    failed  1.402e-10    failed  9.660e-06   25.0000 1
157    0.1000    0.3000    1.3000    1.1000    failed    failed    failed  1.390e-06   25.0000 1
158    0.3000    0.3000    1.3000    1.1000    failed    failed    failed  2.010e-06   25.0000 1
159    0.6000    0.3000    1.3000    1.1000    failed    failed    failed  2.940e-06   25.0000 1
160    0.9000    0.3000    1.3000    1.1000    failed    failed    failed  3.870e-06   25.0000 1
161    1.0000    0.3000    1.3000    1.1000    failed    failed    failed  4.180e-06   25.0000 1
162    1.2000    0.3000    1.3000    1.1000    failed    failed    failed  4.800e-06   25.0000 1
163    1.5000    0.3000    1.3000    1.1000    failed    failed    failed  5.730e-06   25.0000 1
164    1.8000    0.3000    1.3000    1.1000    failed  5.921e-09    failed  6.660e-06   25.0000 1
165    2.1000    0.3000    1.3000    1.1000    failed  4.240e-09    failed  7.590e-06   25.0000 1
166    2.4000    0.3000    1.3000    1.1000    failed  3.551e-09    failed  8.520e-06   25.0000 1
167    2.7000    0.3000    1.3000    1.1000    failed  3.164e-09    failed  9.450e-06   25.0000 1
168    3.0000    0.3000    1.3000    1.1000    failed  2.913e-09    failed  1.038e-05   25.0000 1
169    0.1000    0.6000    1.3000    1.1000    failed    failed    failed  2.470e-06   25.0000 1
170    0.3000    0.6000    1.3000    1.1000    failed    failed    failed  3.090e-06   25.0000 1
171    0.6000    0.6000    1.3000    1.1000    failed    failed    failed  4.020e-06   25.0000 1
172    0.9000    0.6000    1.3000    1.1000    failed    failed    failed  4.950e-06   25.0000 1
173    1.0000    0.6000    1.3000    1.1000    failed    failed    failed  5.260e-06   25.0000 1
174    1.2000    0.6000    1.3000    1.1000    failed    failed    failed  5.880e-06   25.0000 1
175    1.5000    0.6000    1.3000    1.1000    failed    failed    failed  6.810e-06   25.0000 1
176    1.8000    0.6000    1.3000    1.1000    failed  5.924e-09    failed  7.740e-06   25.0000 1
177    2.1000    0.6000    1.3000    1.1000    failed  4.243e-09    failed  8.670e-06   25.0000 1
178    2.4000    0.6000    1.3000    1.1000    failed  3.553e-09    failed  9.600e-06   25.0000 1
179    2.7000    0.6000    1.3000    1.1000    failed  3.165e-09    failed  1.053e-05   25.0000 1
180    3.0000    0.6000    1.3000    1.1000    failed  2.913e-09    failed  1.146e-05   25.0000 1
181    0.1000    0.9000    1.3000    1.1000    failed    failed    failed  3.550e-06   25.0000 1
182    0.3000    0.9000    1.3000    1.1000    failed    failed    failed  4.170e-06   25.0000 1
183    0.6000    0.9000    1.3000    1.1000    failed    failed    failed  5.100e-06   25.0000 1
184    0.9000    0.9000    1.3000    1.1000    failed    failed    failed  6.030e-06   25.0000 1
185    1.0000    0.9000    1.3000    1.1000    failed    failed    failed  6.340e-06   25.0000 1
186    1.2000    0.9000    1.3000    1.1000    failed    failed    failed  6.960e-06   25.0000 1
187    1.5000    0.9000    1.3000    1.1000    failed    failed    failed  7.890e-06   25.0000 1
188    1.8000    0.9000    1.3000    1.1000    failed  5.927e-09    failed  8.820e-06   25.0000 1
189    2.1000    0.9000    1.3000    1.1000    failed  4.244e-09    failed  9.750e-06   25.0000 1
190    2.4000    0.9000    1.3000    1.1000    failed  3.553e-09    failed  1.068e-05   25.0000 1
191    2.7000    0.9000    1.3000    1.1000    failed  3.166e-09    failed  1.161e-05   25.0000 1
192    3.0000    0.9000    1.3000    1.1000    failed  2.915e-09    failed  1.254e-05   25.0000 1
193    0.1000    1.0000    1.3000    1.1000    failed    failed    failed  3.910e-06   25.0000 1
194    0.3000    1.0000    1.3000    1.1000    failed    failed    failed  4.530e-06   25.0000 1
195    0.6000    1.0000    1.3000    1.1000    failed    failed    failed  5.460e-06   25.0000 1
196    0.9000    1.0000    1.3000    1.1000    failed    failed    failed  6.390e-06   25.0000 1
197    1.0000    1.0000    1.3000    1.1000    failed    failed    failed  6.700e-06   25.0000 1
198    1.2000    1.0000    1.3000    1.1000    failed    failed    failed  7.320e-06   25.0000 1
199    1.5000    1.0000    1.3000    1.1000    failed    failed    failed  8.250e-06   25.0000 1
200    1.8000    1.0000    1.3000    1.1000    failed  5.930e-09    failed  9.180e-06   25.0000 1
201    2.1000    1.0000    1.3000    1.1000    failed  4.247e-09    failed  1.011e-05   25.0000 1
202    2.4000    1.0000    1.3000    1.1000    failed  3.555e-09    failed  1.104e-05   25.0000 1
203    2.7000    1.0000    1.3000    1.1000    failed  3.167e-09    failed  1.197e-05   25.0000 1
204    3.0000    1.0000    1.3000    1.1000    failed  2.915e-09    failed  1.290e-05   25.0000 1
205    0.1000    1.2000    1.3000    1.1000    failed    failed    failed  4.630e-06   25.0000 1
206    0.3000    1.2000    1.3000    1.1000    failed    failed    failed  5.250e-06   25.0000 1
207    0.6000    1.2000    1.3000    1.1000    failed    failed    failed  6.180e-06   25.0000 1
208    0.9000    1.2000    1.3000    1.1000    failed    failed    failed  7.110e-06   25.0000 1
209    1.0000    1.2000    1.3000    1.1000    failed    failed    failed  7.420e-06   25.0000 1
210    1.2000    1.2000    1.3000    1.1000    failed    failed    failed  8.040e-06   25.0000 1
211    1.5000    1.2000    1.3000    1.1000    failed    failed    failed  8.970e-06   25.0000 1
212    1.8000    1.2000    1.3000    1.1000    failed  5.930e-09    failed  9.900e-06   25.0000 1
213    2.1000    1.2000    1.3000    1.1000    failed  4.243e-09    failed  1.083e-05   25.0000 1
214    2.4000    1.2000    1.3000    1.1000    failed  3.554e-09    failed  1.176e-05   25.0000 1
215    2.7000    1.2000    1.3000    1.1000    failed  3.166e-09    failed  1.269e-05   25.0000 1
216    3.0000    1.2000    1.3000    1.1000    failed  2.913e-09    failed  1.362e-05   25.0000 1
217    0.1000    1.5000    1.3000    1.1000  5.028e-09    failed    failed  5.710e-06   25.0000 1
218    0.3000    1.5000    1.3000    1.1000  5.031e-09    failed    failed  6.330e-06   25.0000 1
219    0.6000    1.5000    1.3000    1.1000  5.035e-09    failed    failed  7.260e-06   25.0000 1
220    0.9000    1.5000    1.3000    1.1000  5.041e-09    failed    failed  8.190e-06   25.0000 1
221    1.0000    1.5000    1.3000    1.1000  5.042e-09    failed    failed  8.500e-06   25.0000 1
222    1.2000    1.5000    1.3000    1.1000  5.044e-09    failed    failed  9.120e-06   25.0000 1
223    1.5000    1.5000    1.3000    1.1000  5.050e-09    failed    failed  1.005e-05   25.0000 1
224    1.8000    1.5000    1.3000    1.1000  5.054e-09  5.809e-09  5.809e-09  1.098e-05   25.0000 1
225    2.1000    1.5000    1.3000    1.1000  5.059e-09  4.162e-09  5.059e-09  1.191e-05   25.0000 1
226    2.4000    1.5000    1.3000    1.1000  5.064e-09  3.493e-09  5.064e-09  1.284e-05   25.0000 1
227    2.7000    1.5000    1.3000    1.1000  5.068e-09  3.122e-09  5.068e-09  1.377e-05   25.0000 1
228    3.0000    1.5000    1.3000    1.1000  5.073e-09  2.881e-09  5.073e-09  1.470e-05   25.0000 1
229    0.1000    1.8000    1.3000    1.1000  3.833e-09    failed    failed  6.790e-06   25.0000 1
230    0.3000    1.8000    1.3000    1.1000  3.834e-09    failed    failed  7.410e-06   25.0000 1
231    0.6000    1.8000    1.3000    1.1000  3.837e-09    failed    failed  8.340e-06   25.0000 1
232    0.9000    1.8000    1.3000    1.1000  3.839e-09    failed    failed  9.270e-06   25.0000 1
233    1.0000    1.8000    1.3000    1.1000  3.840e-09    failed    failed  9.580e-06   25.0000 1
234    1.2000    1.8000    1.3000    1.1000  3.842e-09    failed    failed  1.020e-05   25.0000 1
235    1.5000    1.8000    1.3000    1.1000  3.844e-09    failed    failed  1.113e-05   25.0000 1
236    1.8000    1.8000    1.3000    1.1000  3.846e-09  5.812e-09  5.812e-09  1.206e-05   25.0000 1
237    2.1000    1.8000    1.3000    1.1000  3.848e-09  4.164e-09  4.164e-09  1.299e-05   25.0000 1
238    2.4000    1.8000    1.3000    1.1000  3.851e-09  3.495e-09  3.851e-09  1.392e-05   25.0000 1
239    2.7000    1.8000    1.3000    1.1000  3.853e-09  3.123e-09  3.853e-09  1.485e-05   25.0000 1
240    3.0000    1.8000    1.3000    1.1000  3.855e-09  2.882e-09  3.855e-09  1.578e-05   25.0000 1
241    0.1000    2.1000    1.3000    1.1000  3.295e-09    failed    failed  7.870e-06   25.0000 1
242    0.3000    2.1000    1.3000    1.1000  3.295e-09    failed    failed  8.490e-06   25.0000 1
243    0.6000    2.1000    1.3000    1.1000  3.297e-09    failed    failed  9.420e-06   25.0000 1
244    0.9000    2.1000    1.3000    1.1000  3.299e-09    failed    failed  1.035e-05   25.0000 1
245    1.0000    2.1000    1.3000    1.1000  3.298e-09    failed    failed  1.066e-05   25.0000 1
246    1.2000    2.1000    1.3000    1.1000  3.299e-09    failed    failed  1.128e-05   25.0000 1
247    1.5000    2.1000    1.3000    1.1000  3.301e-09    failed    failed  1.221e-05   25.0000 1
248    1.8000    2.1000    1.3000    1.1000  3.303e-09  5.817e-09  5.817e-09  1.314e-05   25.0000 1
249    2.1000    2.1000    1.3000    1.1000  3.304e-09  4.166e-09  4.166e-09  1.407e-05   25.0000 1
250    2.4000    2.1000    1.3000    1.1000  3.305e-09  3.496e-09  3.496e-09  1.500e-05   25.0000 1
251    2.7000    2.1000    1.3000    1.1000  3.307e-09  3.124e-09  3.307e-09  1.593e-05   25.0000 1
252    3.0000    2.1000    1.3000    1.1000  3.311e-09  2.883e-09  3.311e-09  1.686e-05   25.0000 1
253    0.1000    2.4000    1.3000    1.1000  2.980e-09    failed    failed  8.950e-06   25.0000 1
254    0.3000    2.4000    1.3000    1.1000  2.981e-09    failed    failed  9.570e-06   25.0000 1
255    0.6000    2.4000    1.3000    1.1000  2.983e-09    failed    failed  1.050e-05   25.0000 1
256    0.9000    2.4000    1.3000    1.1000  2.983e-09    failed    failed  1.143e-05   25.0000 1
257    1.0000    2.4000    1.3000    1.1000  2.982e-09    failed    failed  1.174e-05   25.0000 1
258    1.2000    2.4000    1.3000    1.1000  2.985e-09    failed    failed  1.236e-05   25.0000 1
259    1.5000    2.4000    1.3000    1.1000  2.985e-09    failed    failed  1.329e-05   25.0000 1
260    1.8000    2.4000    1.3000    1.1000  2.987e-09  5.822e-09  5.822e-09  1.422e-05   25.0000 1
261    2.1000    2.4000    1.3000    1.1000  2.988e-09  4.168e-09  4.168e-09  1.515e-05   25.0000 1
262    2.4000    2.4000    1.3000    1.1000  2.989e-09  3.498e-09  3.498e-09  1.608e-05   25.0000 1
263    2.7000    2.4000    1.3000    1.1000  2.991e-09  3.124e-09  3.124e-09  1.701e-05   25.0000 1
264    3.0000    2.4000    1.3000    1.1000  2.991e-09  2.884e-09  2.991e-09  1.794e-05   25.0000 1
265    0.1000    2.7000    1.3000    1.1000  2.771e-09    failed    failed  1.003e-05   25.0000 1
266    0.3000    2.7000    1.3000    1.1000  2.772e-09    failed    failed  1.065e-05   25.0000 1
267    0.6000    2.7000    1.3000    1.1000  2.773e-09    failed    failed  1.158e-05   25.0000 1
268    0.9000    2.7000    1.3000    1.1000  2.773e-09    failed    failed  1.251e-05   25.0000 1
269    1.0000    2.7000    1.3000    1.1000  2.774e-09    failed    failed  1.282e-05   25.0000 1
270    1.2000    2.7000    1.3000    1.1000  2.775e-09    failed    failed  1.344e-05   25.0000 1
271    1.5000    2.7000    1.3000    1.1000  2.776e-09    failed    failed  1.437e-05   25.0000 1
272    1.8000    2.7000    1.3000    1.1000  2.777e-09  5.824e-09  5.824e-09  1.530e-05   25.0000 1
273    2.1000    2.7000    1.3000    1.1000  2.778e-09  4.170e-09  4.170e-09  1.623e-05   25.0000 1
274    2.4000    2.7000    1.3000    1.1000  2.779e-09  3.501e-09  3.501e-09  1.716e-05   25.0000 1
275    2.7000    2.7000    1.3000    1.1000  2.779e-09  3.126e-09  3.126e-09  1.809e-05   25.0000 1
276    3.0000    2.7000    1.3000    1.1000  2.781e-09  2.884e-09  2.884e-09  1.902e-05   25.0000 1
277    0.1000    3.0000    1.3000    1.1000  2.622e-09    failed    failed  1.111e-05   25.0000 1
278    0.3000    3.0000    1.3000    1.1000  2.622e-09    failed    failed  1.173e-05   25.0000 1
279    0.6000    3.0000    1.3000    1.1000  2.623e-09    failed    failed  1.266e-05   25.0000 1
280    0.9000    3.0000    1.3000    1.1000  2.624e-09    failed    failed  1.359e-05   25.0000 1
281    1.0000    3.0000    1.3000    1.1000  2.624e-09    failed    failed  1.390e-05   25.0000 1
282    1.2000    3.0000    1.3000    1.1000  2.625e-09    failed    failed  1.452e-05   25.0000 1
283    1.5000    3.0000    1.3000    1.1000  2.626e-09    failed    failed  1.545e-05   25.0000 1
284    1.8000    3.0000    1.3000    1.1000  2.626e-09  5.829e-09  5.829e-09  1.638e-05   25.0000 1
285    2.1000    3.0000    1.3000    1.1000  2.627e-09  4.174e-09  4.174e-09  1.731e-05   25.0000 1
286    2.4000    3.0000    1.3000    1.1000  2.628e-09  3.499e-09  3.499e-09  1.824e-05   25.0000 1
287    2.7000    3.0000    1.3000    1.1000  2.629e-09  3.126e-09  3.126e-09  1.917e-05   25.0000 1
288    3.0000    3.0000    1.3000    1.1000  2.630e-09  2.885e-09  2.885e-09  2.010e-05   25.0000 1
289    0.1000    0.1000    1.6000    1.1000    failed  8.584e-10    failed  7.300e-07   25.0000 1
290    0.3000    0.1000    1.6000    1.1000    failed  4.695e-10    failed  1.350e-06   25.0000 1
291    0.6000    0.1000    1.6000    1.1000    failed  3.156e-10    failed  2.280e-06   25.0000 1
292    0.9000    0.1000    1.6000    1.1000    failed  2.465e-10    failed  3.210e-06   25.0000 1
293    1.0000    0.1000    1.6000    1.1000    failed  2.316e-10    failed  3.520e-06   25.0000 1
294    1.2000    0.1000    1.6000    1.1000    failed  2.086e-10    failed  4.140e-06   25.0000 1
295    1.5000    0.1000    1.6000    1.1000    failed  1.848e-10    failed  5.070e-06   25.0000 1
296    1.8000    0.1000    1.6000    1.1000    failed  1.689e-10    failed  6.000e-06   25.0000 1
297    2.1000    0.1000    1.6000    1.1000    failed  1.594e-10    failed  6.930e-06   25.0000 1
298    2.4000    0.1000    1.6000    1.1000    failed  1.516e-10    failed  7.860e-06   25.0000 1
299    2.7000    0.1000    1.6000    1.1000    failed  1.457e-10    failed  8.790e-06   25.0000 1
300    3.0000    0.1000    1.6000    1.1000    failed  1.398e-10    failed  9.720e-06   25.0000 1
301    0.1000    0.3000    1.6000    1.1000    failed    failed    failed  1.570e-06   25.0000 1
302    0.3000    0.3000    1.6000    1.1000    failed    failed    failed  2.190e-06   25.0000 1
303    0.6000    0.3000    1.6000    1.1000    failed    failed    failed  3.120e-06   25.0000 1
304    0.9000    0.3000    1.6000    1.1000    failed    failed    failed  4.050e-06   25.0000 1
305    1.0000    0.3000    1.6000    1.1000    failed    failed    failed  4.360e-06   25.0000 1
306    1.2000    0.3000    1.6000    1.1000    failed    failed    failed  4.980e-06   25.0000 1
307    1.5000    0.3000    1.6000    1.1000    failed    failed    failed  5.910e-06   25.0000 1
308    1.8000    0.3000    1.6000    1.1000    failed  5.920e-09    failed  6.840e-06   25.0000 1
309    2.1000    0.3000    1.6000    1.1000    failed  4.241e-09    failed  7.770e-06   25.0000 1
310    2.4000    0.3000    1.6000    1.1000    failed  3.551e-09    failed  8.700e-06   25.0000 1
311    2.7000    0.3000    1.6000    1.1000    failed  3.165e-09    failed  9.630e-06   25.0000 1
312    3.0000    0.3000    1.6000    1.1000    failed  2.913e-09    failed  1.056e-05   25.0000 1
313    0.1000    0.6000    1.6000    1.1000    failed    failed    failed  2.830e-06   25.0000 1
314    0.3000    0.6000    1.6000    1.1000    failed    failed    failed  3.450e-06   25.0000 1
315    0.6000    0.6000    1.6000    1.1000    failed    failed    failed  4.380e-06   25.0000 1
316    0.9000    0.6000    1.6000    1.1000    failed    failed    failed  5.310e-06   25.0000 1
317    1.0000    0.6000    1.6000    1.1000    failed    failed    failed  5.620e-06   25.0000 1
318    1.2000    0.6000    1.6000    1.1000    failed    failed    failed  6.240e-06   25.0000 1
319    1.5000    0.6000    1.6000    1.1000    failed    failed    failed  7.170e-06   25.0000 1
320    1.8000    0.6000    1.6000    1.1000    failed  5.924e-09    failed  8.100e-06   25.0000 1
321    2.1000    0.6000    1.6000    1.1000    failed  4.244e-09    failed  9.030e-06   25.0000 1
322    2.4000    0.6000    1.6000    1.1000    failed  3.553e-09    failed  9.960e-06   25.0000 1
323    2.7000    0.6000    1.6000    1.1000    failed  3.166e-09    failed  1.089e-05   25.0000 1
324    3.0000    0.6000    1.6000    1.1000    failed  2.915e-09    failed  1.182e-05   25.0000 1
325    0.1000    0.9000    1.6000    1.1000    failed    failed    failed  4.090e-06   25.0000 1
326    0.3000    0.9000    1.6000    1.1000    failed    failed    failed  4.710e-06   25.0000 1
327    0.6000    0.9000    1.6000    1.1000    failed    failed    failed  5.640e-06   25.0000 1
328    0.9000    0.9000    1.6000    1.1000    failed    failed    failed  6.570e-06   25.0000 1
329    1.0000    0.9000    1.6000    1.1000    failed    failed    failed  6.880e-06   25.0000 1
330    1.2000    0.9000    1.6000    1.1000    failed    failed    failed  7.500e-06   25.0000 1
331    1.5000    0.9000    1.6000    1.1000    failed    failed    failed  8.430e-06   25.0000 1
332    1.8000    0.9000    1.6000    1.1000    failed  5.928e-09    failed  9.360e-06   25.0000 1
333    2.1000    0.9000    1.6000    1.1000    failed  4.245e-09    failed  1.029e-05   25.0000 1
334    2.4000    0.9000    1.6000    1.1000    failed  3.555e-09    failed  1.122e-05   25.0000 1
335    2.7000    0.9000    1.6000    1.1000    failed  3.166e-09    failed  1.215e-05   25.0000 1
336    3.0000    0.9000    1.6000    1.1000    failed  2.916e-09    failed  1.308e-05   25.0000 1
337    0.1000    1.0000    1.6000    1.1000    failed    failed    failed  4.510e-06   25.0000 1
338    0.3000    1.0000    1.6000    1.1000    failed    failed    failed  5.130e-06   25.0000 1
339    0.6000    1.0000    1.6000    1.1000    failed    failed    failed  6.060e-06   25.0000 1
340    0.9000    1.0000    1.6000    1.1000    failed    failed    failed  6.990e-06   25.0000 1
341    1.0000    1.0000    1.6000    1.1000    failed    failed    failed  7.300e-06   25.0000 1
342    1.2000    1.0000    1.6000    1.1000    failed    failed    failed  7.920e-06   25.0000 1
343    1.5000    1.0000    1.6000    1.1000    failed    failed    failed  8.850e-06   25.0000 1
344    1.8000    1.0000    1.6000    1.1000    failed  5.931e-09    failed  9.780e-06   25.0000 1
345    2.1000    1.0000    1.6000    1.1000    failed  4.245e-09    failed  1.071e-05   25.0000 1
346    2.4000    1.0000    1.6000    1.1000    failed  3.554e-09    failed  1.164e-05   25.0000 1
347    2.7000    1.0000    1.6000    1.1000    failed  3.166e-09    failed  1.257e-05   25.0000 1
348    3.0000    1.0000    1.6000    1.1000    failed  2.914e-09    failed  1.350e-05   25.0000 1
349    0.1000    1.2000    1.6000    1.1000  8.427e-09    failed    failed  5.350e-06   25.0000 1
350    0.3000    1.2000    1.6000    1.1000  8.425e-09    failed    failed  5.970e-06   25.0000 1
351    0.6000    1.2000    1.6000    1.1000  8.452e-09    failed    failed  6.900e-06   25.0000 1
352    0.9000    1.2000    1.6000    1.1000  8.473e-09    failed    failed  7.830e-06   25.0000 1
353    1.0000    1.2000    1.6000    1.1000  8.465e-09    failed    failed  8.140e-06   25.0000 1
354    1.2000    1.2000    1.6000    1.1000  8.478e-09    failed    failed  8.760e-06   25.0000 1
355    1.5000    1.2000    1.6000    1.1000  8.496e-09    failed    failed  9.690e-06   25.0000 1
356    1.8000    1.2000    1.6000    1.1000  8.511e-09  5.806e-09  8.511e-09  1.062e-05   25.0000 1
357    2.1000    1.2000    1.6000    1.1000  8.533e-09  4.160e-09  8.533e-09  1.155e-05   25.0000 1
358    2.4000    1.2000    1.6000    1.1000  8.550e-09  3.493e-09  8.550e-09  1.248e-05   25.0000 1
359    2.7000    1.2000    1.6000    1.1000  8.569e-09  3.121e-09  8.569e-09  1.341e-05   25.0000 1
360    3.0000    1.2000    1.6000    1.1000  8.594e-09  2.880e-09  8.594e-09  1.434e-05   25.0000 1
361    0.1000    1.5000    1.6000    1.1000  4.536e-09    failed    failed  6.610e-06   25.0000 1
362    0.3000    1.5000    1.6000    1.1000  4.539e-09    failed    failed  7.230e-06   25.0000 1
363    0.6000    1.5000    1.6000    1.1000  4.542e-09    failed    failed  8.160e-06   25.0000 1
364    0.9000    1.5000    1.6000    1.1000  4.546e-09    failed    failed  9.090e-06   25.0000 1
365    1.0000    1.5000    1.6000    1.1000  4.546e-09    failed    failed  9.400e-06   25.0000 1
366    1.2000    1.5000    1.6000    1.1000  4.548e-09    failed    failed  1.002e-05   25.0000 1
367    1.5000    1.5000    1.6000    1.1000  4.550e-09    failed    failed  1.095e-05   25.0000 1
368    1.8000    1.5000    1.6000    1.1000  4.555e-09  5.811e-09  5.811e-09  1.188e-05   25.0000 1
369    2.1000    1.5000    1.6000    1.1000  4.557e-09  4.162e-09  4.557e-09  1.281e-05   25.0000 1
370    2.4000    1.5000    1.6000    1.1000  4.561e-09  3.494e-09  4.561e-09  1.374e-05   25.0000 1
371    2.7000    1.5000    1.6000    1.1000  4.564e-09  3.121e-09  4.564e-09  1.467e-05   25.0000 1
372    3.0000    1.5000    1.6000    1.1000  4.568e-09  2.881e-09  4.568e-09  1.560e-05   25.0000 1
373    0.1000    1.8000    1.6000    1.1000  3.595e-09    failed    failed  7.870e-06   25.0000 1
374    0.3000    1.8000    1.6000    1.1000  3.600e-09    failed    failed  8.490e-06   25.0000 1
375    0.6000    1.8000    1.6000    1.1000  3.598e-09    failed    failed  9.420e-06   25.0000 1
376    0.9000    1.8000    1.6000    1.1000  3.601e-09    failed    failed  1.035e-05   25.0000 1
377    1.0000    1.8000    1.6000    1.1000  3.601e-09    failed    failed  1.066e-05   25.0000 1
378    1.2000    1.8000    1.6000    1.1000  3.602e-09    failed    failed  1.128e-05   25.0000 1
379    1.5000    1.8000    1.6000    1.1000  3.605e-09    failed    failed  1.221e-05   25.0000 1
380    1.8000    1.8000    1.6000    1.1000  3.606e-09  5.815e-09  5.815e-09  1.314e-05   25.0000 1
381    2.1000    1.8000    1.6000    1.1000  3.609e-09  4.165e-09  4.165e-09  1.407e-05   25.0000 1
382    2.4000    1.8000    1.6000    1.1000  3.609e-09  3.496e-09  3.609e-09  1.500e-05   25.0000 1
383    2.7000    1.8000    1.6000    1.1000  3.612e-09  3.122e-09  3.612e-09  1.593e-05   25.0000 1
384    3.0000    1.8000    1.6000    1.1000  3.613e-09  2.882e-09  3.613e-09  1.686e-05   25.0000 1
385    0.1000    2.1000    1.6000    1.1000  3.141e-09    failed    failed  9.130e-06   25.0000 1
386    0.3000    2.1000    1.6000    1.1000  3.143e-09    failed    failed  9.750e-06   25.0000 1
387    0.6000    2.1000    1.6000    1.1000  3.144e-09    failed    failed  1.068e-05   25.0000 1
388    0.9000    2.1000    1.6000    1.1000  3.146e-09    failed    failed  1.161e-05   25.0000 1
389    1.0000    2.1000    1.6000    1.1000  3.146e-09    failed    failed  1.192e-05   25.0000 1
390    1.2000    2.1000    1.6000    1.1000  3.147e-09    failed    failed  1.254e-05   25.0000 1
391    1.5000    2.1000    1.6000    1.1000  3.147e-09    failed    failed  1.347e-05   25.0000 1
392    1.8000    2.1000    1.6000    1.1000  3.149e-09  5.819e-09  5.819e-09  1.440e-05   25.0000 1
393    2.1000    2.1000    1.6000    1.1000  3.150e-09  4.167e-09  4.167e-09  1.533e-05   25.0000 1
394    2.4000    2.1000    1.6000    1.1000  3.151e-09  3.497e-09  3.497e-09  1.626e-05   25.0000 1
395    2.7000    2.1000    1.6000    1.1000  3.151e-09  3.124e-09  3.151e-09  1.719e-05   25.0000 1
396    3.0000    2.1000    1.6000    1.1000  3.154e-09  2.881e-09  3.154e-09  1.812e-05   25.0000 1
397    0.1000    2.4000    1.6000    1.1000  2.869e-09    failed    failed  1.039e-05   25.0000 1
398    0.3000    2.4000    1.6000    1.1000  2.869e-09    failed    failed  1.101e-05   25.0000 1
399    0.6000    2.4000    1.6000    1.1000  2.870e-09    failed    failed  1.194e-05   25.0000 1
400    0.9000    2.4000    1.6000    1.1000  2.871e-09    failed    failed  1.287e-05   25.0000 1
401    1.0000    2.4000    1.6000    1.1000  2.871e-09    failed    failed  1.318e-05   25.0000 1
402    1.2000    2.4000    1.6000    1.1000  2.872e-09    failed    failed  1.380e-05   25.0000 1
403    1.5000    2.4000    1.6000    1.1000  2.873e-09    failed    failed  1.473e-05   25.0000 1
404    1.8000    2.4000    1.6000    1.1000  2.874e-09  5.824e-09  5.824e-09  1.566e-05   25.0000 1
405    2.1000    2.4000    1.6000    1.1000  2.875e-09  4.169e-09  4.169e-09  1.659e-05   25.0000 1
406    2.4000    2.4000    1.6000    1.1000  2.876e-09  3.498e-09  3.498e-09  1.752e-05   25.0000 1
407    2.7000    2.4000    1.6000    1.1000  2.876e-09  3.125e-09  3.125e-09  1.845e-05   25.0000 1
408    3.0000    2.4000    1.6000    1.1000  2.878e-09  2.884e-09  2.884e-09  1.938e-05   25.0000 1
409    0.1000    2.7000    1.6000    1.1000  2.684e-09    failed    failed  1.165e-05   25.0000 1
410    0.3000    2.7000    1.6000    1.1000  2.684e-09    failed    failed  1.227e-05   25.0000 1
411    0.6000    2.7000    1.6000    1.1000  2.684e-09    failed    failed  1.320e-05   25.0000 1
412    0.9000    2.7000    1.6000    1.1000  2.686e-09    failed    failed  1.413e-05   25.0000 1
413    1.0000    2.7000    1.6000    1.1000  2.686e-09    failed    failed  1.444e-05   25.0000 1
414    1.2000    2.7000    1.6000    1.1000  2.687e-09    failed    failed  1.506e-05   25.0000 1
415    1.5000    2.7000    1.6000    1.1000  2.688e-09    failed    failed  1.599e-05   25.0000 1
416    1.8000    2.7000    1.6000    1.1000  2.688e-09  5.829e-09  5.829e-09  1.692e-05   25.0000 1
417    2.1000    2.7000    1.6000    1.1000  2.689e-09  4.171e-09  4.171e-09  1.785e-05   25.0000 1
418    2.4000    2.7000    1.6000    1.1000  2.690e-09  3.500e-09  3.500e-09  1.878e-05   25.0000 1
419    2.7000    2.7000    1.6000    1.1000  2.691e-09  3.125e-09  3.125e-09  1.971e-05   25.0000 1
420    3.0000    2.7000    1.6000    1.1000  2.692e-09  2.884e-09  2.884e-09  2.064e-05   25.0000 1
421    0.1000    3.0000    1.6000    1.1000  2.550e-09    failed    failed  1.291e-05   25.0000 1
422    0.3000    3.0000    1.6000    1.1000  2.550e-09    failed    failed  1.353e-05   25.0000 1
423    0.6000    3.0000    1.6000    1.1000  2.551e-09    failed    failed  1.446e-05   25.0000 1
424    0.9000    3.0000    1.6000    1.1000  2.552e-09    failed    failed  1.539e-05   25.0000 1
425    1.0000    3.0000    1.6000    1.1000  2.552e-09    failed    failed  1.570e-05   25.0000 1
426    1.2000    3.0000    1.6000    1.1000  2.552e-09    failed    failed  1.632e-05   25.0000 1
427    1.5000    3.0000    1.6000    1.1000  2.553e-09    failed    failed  1.725e-05   25.0000 1
428    1.8000    3.0000    1.6000    1.1000  2.554e-09  5.833e-09  5.833e-09  1.818e-05   25.0000 1
429    2.1000    3.0000    1.6000    1.1000  2.555e-09  4.173e-09  4.173e-09  1.911e-05   25.0000 1
430    2.4000    3.0000    1.6000    1.1000  2.555e-09  3.500e-09  3.500e-09  2.004e-05   25.0000 1
431    2.7000    3.0000    1.6000    1.1000  2.556e-09  3.126e-09  3.126e-09  2.097e-05   25.0000 1
432    3.0000    3.0000    1.6000    1.1000  2.557e-09  2.886e-09  2.886e-09  2.190e-05   25.0000 1
433    0.1000    0.1000    1.9000    1.1000    failed  8.514e-10    failed  7.900e-07   25.0000 1
434    0.3000    0.1000    1.9000    1.1000    failed  4.679e-10    failed  1.410e-06   25.0000 1
435    0.6000    0.1000    1.9000    1.1000    failed  3.126e-10    failed  2.340e-06   25.0000 1
436    0.9000    0.1000    1.9000    1.1000    failed  2.442e-10    failed  3.270e-06   25.0000 1
437    1.0000    0.1000    1.9000    1.1000    failed  2.292e-10    failed  3.580e-06   25.0000 1
438    1.2000    0.1000    1.9000    1.1000    failed  2.058e-10    failed  4.200e-06   25.0000 1
439    1.5000    0.1000    1.9000    1.1000    failed  1.832e-10    failed  5.130e-06   25.0000 1
440    1.8000    0.1000    1.9000    1.1000    failed  1.674e-10    failed  6.060e-06   25.0000 1
441    2.1000    0.1000    1.9000    1.1000    failed  1.567e-10    failed  6.990e-06   25.0000 1
442    2.4000    0.1000    1.9000    1.1000    failed  1.502e-10    failed  7.920e-06   25.0000 1
443    2.7000    0.1000    1.9000    1.1000    failed  1.443e-10    failed  8.850e-06   25.0000 1
444    3.0000    0.1000    1.9000    1.1000    failed  1.397e-10    failed  9.780e-06   25.0000 1
445    0.1000    0.3000    1.9000    1.1000    failed    failed    failed  1.750e-06   25.0000 1
446    0.3000    0.3000    1.9000    1.1000    failed    failed    failed  2.370e-06   25.0000 1
447    0.6000    0.3000    1.9000    1.1000    failed    failed    failed  3.300e-06   25.0000 1
448    0.9000    0.3000    1.9000    1.1000    failed    failed    failed  4.230e-06   25.0000 1
449    1.0000    0.3000    1.9000    1.1000    failed    failed    failed  4.540e-06   25.0000 1
450    1.2000    0.3000    1.9000    1.1000    failed    failed    failed  5.160e-06   25.0000 1
451    1.5000    0.3000    1.9000    1.1000    failed    failed    failed  6.090e-06   25.0000 1
452    1.8000    0.3000    1.9000    1.1000    failed  5.921e-09    failed  7.020e-06   25.0000 1
453    2.1000    0.3000    1.9000    1.1000    failed  4.241e-09    failed  7.950e-06   25.0000 1
454    2.4000    0.3000    1.9000    1.1000    failed  3.551e-09    failed  8.880e-06   25.0000 1
455    2.7000    0.3000    1.9000    1.1000    failed  3.164e-09    failed  9.810e-06   25.0000 1
456    3.0000    0.3000    1.9000    1.1000    failed  2.914e-09    failed  1.074e-05   25.0000 1
457    0.1000    0.6000    1.9000    1.1000    failed    failed    failed  3.190e-06   25.0000 1
458    0.3000    0.6000    1.9000    1.1000    failed    failed    failed  3.810e-06   25.0000 1
459    0.6000    0.6000    1.9000    1.1000    failed    failed    failed  4.740e-06   25.0000 1
460    0.9000    0.6000    1.9000    1.1000    failed    failed    failed  5.670e-06   25.0000 1
461    1.0000    0.6000    1.9000    1.1000    failed    failed    failed  5.980e-06   25.0000 1
462    1.2000    0.6000    1.9000    1.1000    failed    failed    failed  6.600e-06   25.0000 1
463    1.5000    0.6000    1.9000    1.1000    failed    failed    failed  7.530e-06   25.0000 1
464    1.8000    0.6000    1.9000    1.1000    failed  5.927e-09    failed  8.460e-06   25.0000 1
465    2.1000    0.6000    1.9000    1.1000    failed  4.244e-09    failed  9.390e-06   25.0000 1
466    2.4000    0.6000    1.9000    1.1000    failed  3.553e-09    failed  1.032e-05   25.0000 1
467    2.7000    0.6000    1.9000    1.1000    failed  3.165e-09    failed  1.125e-05   25.0000 1
468    3.0000    0.6000    1.9000    1.1000    failed  2.914e-09    failed  1.218e-05   25.0000 1
469    0.1000    0.9000    1.9000    1.1000    failed    failed    failed  4.630e-06   25.0000 1
470    0.3000    0.9000    1.9000    1.1000    failed    failed    failed  5.250e-06   25.0000 1
471    0.6000    0.9000    1.9000    1.1000    failed    failed    failed  6.180e-06   25.0000 1
472    0.9000    0.9000    1.9000    1.1000    failed    failed    failed  7.110e-06   25.0000 1
473    1.0000    0.9000    1.9000    1.1000    failed    failed    failed  7.420e-06   25.0000 1
474    1.2000    0.9000    1.9000    1.1000    failed    failed    failed  8.040e-06   25.0000 1
475    1.5000    0.9000    1.9000    1.1000    failed    failed    failed  8.970e-06   25.0000 1
476    1.8000    0.9000    1.9000    1.1000    failed  5.931e-09    failed  9.900e-06   25.0000 1
477    2.1000    0.9000    1.9000    1.1000    failed  4.245e-09    failed  1.083e-05   25.0000 1
478    2.4000    0.9000    1.9000    1.1000    failed  3.554e-09    failed  1.176e-05   25.0000 1
479    2.7000    0.9000    1.9000    1.1000    failed  3.167e-09    failed  1.269e-05   25.0000 1
480    3.0000    0.9000    1.9000    1.1000    failed  2.916e-09    failed  1.362e-05   25.0000 1
481    0.1000    1.0000    1.9000    1.1000    failed    failed    failed  5.110e-06   25.0000 1
482    0.3000    1.0000    1.9000    1.1000    failed    failed    failed  5.730e-06   25.0000 1
483    0.6000    1.0000    1.9000    1.1000    failed    failed    failed  6.660e-06   25.0000 1
484    0.9000    1.0000    1.9000    1.1000    failed    failed    failed  7.590e-06   25.0000 1
485    1.0000    1.0000    1.9000    1.1000    failed    failed    failed  7.900e-06   25.0000 1
486    1.2000    1.0000    1.9000    1.1000    failed    failed    failed  8.520e-06   25.0000 1
487    1.5000    1.0000    1.9000    1.1000    failed    failed    failed  9.450e-06   25.0000 1
488    1.8000    1.0000    1.9000    1.1000    failed  5.929e-09    failed  1.038e-05   25.0000 1
489    2.1000    1.0000    1.9000    1.1000    failed  4.247e-09    failed  1.131e-05   25.0000 1
490    2.4000    1.0000    1.9000    1.1000    failed  3.554e-09    failed  1.224e-05   25.0000 1
491    2.7000    1.0000    1.9000    1.1000    failed  3.166e-09    failed  1.317e-05   25.0000 1
492    3.0000    1.0000    1.9000    1.1000    failed  2.915e-09    failed  1.410e-05   25.0000 1
493    0.1000    1.2000    1.9000    1.1000  7.108e-09    failed    failed  6.070e-06   25.0000 1
494    0.3000    1.2000    1.9000    1.1000  7.114e-09    failed    failed  6.690e-06   25.0000 1
495    0.6000    1.2000    1.9000    1.1000  7.122e-09    failed    failed  7.620e-06   25.0000 1
496    0.9000    1.2000    1.9000    1.1000  7.134e-09    failed    failed  8.550e-06   25.0000 1
497    1.0000    1.2000    1.9000    1.1000  7.138e-09    failed    failed  8.860e-06   25.0000 1
498    1.2000    1.2000    1.9000    1.1000  7.145e-09    failed    failed  9.480e-06   25.0000 1
499    1.5000    1.2000    1.9000    1.1000  7.158e-09    failed    failed  1.041e-05   25.0000 1
500    1.8000    1.2000    1.9000    1.1000  7.165e-09  5.807e-09  7.165e-09  1.134e-05   25.0000 1
501    2.1000    1.2000    1.9000    1.1000  7.176e-09  4.161e-09  7.176e-09  1.227e-05   25.0000 1
502    2.4000    1.2000    1.9000    1.1000  7.189e-09  3.493e-09  7.189e-09  1.320e-05   25.0000 1
503    2.7000    1.2000    1.9000    1.1000  7.195e-09  3.122e-09  7.195e-09  1.413e-05   25.0000 1
504    3.0000    1.2000    1.9000    1.1000  7.208e-09  2.881e-09  7.208e-09  1.506e-05   25.0000 1
505    0.1000    1.5000    1.9000    1.1000  4.269e-09    failed    failed  7.510e-06   25.0000 1
506    0.3000    1.5000    1.9000    1.1000  4.271e-09    failed    failed  8.130e-06   25.0000 1
507    0.6000    1.5000    1.9000    1.1000  4.273e-09    failed    failed  9.060e-06   25.0000 1
508    0.9000    1.5000    1.9000    1.1000  4.276e-09    failed    failed  9.990e-06   25.0000 1
509    1.0000    1.5000    1.9000    1.1000  4.276e-09    failed    failed  1.030e-05   25.0000 1
510    1.2000    1.5000    1.9000    1.1000  4.278e-09    failed    failed  1.092e-05   25.0000 1
511    1.5000    1.5000    1.9000    1.1000  4.280e-09    failed    failed  1.185e-05   25.0000 1
512    1.8000    1.5000    1.9000    1.1000  4.283e-09  5.812e-09  5.812e-09  1.278e-05   25.0000 1
513    2.1000    1.5000    1.9000    1.1000  4.286e-09  4.163e-09  4.286e-09  1.371e-05   25.0000 1
514    2.4000    1.5000    1.9000    1.1000  4.289e-09  3.494e-09  4.289e-09  1.464e-05   25.0000 1
515    2.7000    1.5000    1.9000    1.1000  4.291e-09  3.121e-09  4.291e-09  1.557e-05   25.0000 1
516    3.0000    1.5000    1.9000    1.1000  4.294e-09  2.882e-09  4.294e-09  1.650e-05   25.0000 1
517    0.1000    1.8000    1.9000    1.1000  3.455e-09    failed    failed  8.950e-06   25.0000 1
518    0.3000    1.8000    1.9000    1.1000  3.456e-09    failed    failed  9.570e-06   25.0000 1
519    0.6000    1.8000    1.9000    1.1000  3.458e-09    failed    failed  1.050e-05   25.0000 1
520    0.9000    1.8000    1.9000    1.1000  3.459e-09    failed    failed  1.143e-05   25.0000 1
521    1.0000    1.8000    1.9000    1.1000  3.459e-09    failed    failed  1.174e-05   25.0000 1
522    1.2000    1.8000    1.9000    1.1000  3.461e-09    failed    failed  1.236e-05   25.0000 1
523    1.5000    1.8000    1.9000    1.1000  3.462e-09    failed    failed  1.329e-05   25.0000 1
524    1.8000    1.8000    1.9000    1.1000  3.464e-09  5.816e-09  5.816e-09  1.422e-05   25.0000 1
525    2.1000    1.8000    1.9000    1.1000  3.465e-09  4.166e-09  4.166e-09  1.515e-05   25.0000 1
526    2.4000    1.8000    1.9000    1.1000  3.467e-09  3.496e-09  3.496e-09  1.608e-05   25.0000 1
527    2.7000    1.8000    1.9000    1.1000  3.468e-09  3.124e-09  3.468e-09  1.701e-05   25.0000 1
528    3.0000    1.8000    1.9000    1.1000  3.470e-09  2.883e-09  3.470e-09  1.794e-05   25.0000 1
529    0.1000    2.1000    1.9000    1.1000  3.048e-09    failed    failed  1.039e-05   25.0000 1
530    0.3000    2.1000    1.9000    1.1000  3.049e-09    failed    failed  1.101e-05   25.0000 1
531    0.6000    2.1000    1.9000    1.1000  3.050e-09    failed    failed  1.194e-05   25.0000 1
532    0.9000    2.1000    1.9000    1.1000  3.051e-09    failed    failed  1.287e-05   25.0000 1
533    1.0000    2.1000    1.9000    1.1000  3.051e-09    failed    failed  1.318e-05   25.0000 1
534    1.2000    2.1000    1.9000    1.1000  3.051e-09    failed    failed  1.380e-05   25.0000 1
535    1.5000    2.1000    1.9000    1.1000  3.053e-09    failed    failed  1.473e-05   25.0000 1
536    1.8000    2.1000    1.9000    1.1000  3.054e-09  5.822e-09  5.822e-09  1.566e-05   25.0000 1
537    2.1000    2.1000    1.9000    1.1000  3.054e-09  4.168e-09  4.168e-09  1.659e-05   25.0000 1
538    2.4000    2.1000    1.9000    1.1000  3.056e-09  3.497e-09  3.497e-09  1.752e-05   25.0000 1
539    2.7000    2.1000    1.9000    1.1000  3.058e-09  3.124e-09  3.124e-09  1.845e-05   25.0000 1
540    3.0000    2.1000    1.9000    1.1000  3.058e-09  2.884e-09  3.058e-09  1.938e-05   25.0000 1
541    0.1000    2.4000    1.9000    1.1000  2.798e-09    failed    failed  1.183e-05   25.0000 1
542    0.3000    2.4000    1.9000    1.1000  2.799e-09    failed    failed  1.245e-05   25.0000 1
543    0.6000    2.4000    1.9000    1.1000  2.800e-09    failed    failed  1.338e-05   25.0000 1
544    0.9000    2.4000    1.9000    1.1000  2.800e-09    failed    failed  1.431e-05   25.0000 1
545    1.0000    2.4000    1.9000    1.1000  2.801e-09    failed    failed  1.462e-05   25.0000 1
546    1.2000    2.4000    1.9000    1.1000  2.801e-09    failed    failed  1.524e-05   25.0000 1
547    1.5000    2.4000    1.9000    1.1000  2.802e-09    failed    failed  1.617e-05   25.0000 1
548    1.8000    2.4000    1.9000    1.1000  2.803e-09  5.827e-09  5.827e-09  1.710e-05   25.0000 1
549    2.1000    2.4000    1.9000    1.1000  2.804e-09  4.171e-09  4.171e-09  1.803e-05   25.0000 1
550    2.4000    2.4000    1.9000    1.1000  2.805e-09  3.499e-09  3.499e-09  1.896e-05   25.0000 1
551    2.7000    2.4000    1.9000    1.1000  2.805e-09  3.126e-09  3.126e-09  1.989e-05   25.0000 1
552    3.0000    2.4000    1.9000    1.1000  2.806e-09  2.884e-09  2.884e-09  2.082e-05   25.0000 1
553    0.1000    2.7000    1.9000    1.1000  2.627e-09    failed    failed  1.327e-05   25.0000 1
554    0.3000    2.7000    1.9000    1.1000  2.628e-09    failed    failed  1.389e-05   25.0000 1
555    0.6000    2.7000    1.9000    1.1000  2.628e-09    failed    failed  1.482e-05   25.0000 1
556    0.9000    2.7000    1.9000    1.1000  2.629e-09    failed    failed  1.575e-05   25.0000 1
557    1.0000    2.7000    1.9000    1.1000  2.629e-09    failed    failed  1.606e-05   25.0000 1
558    1.2000    2.7000    1.9000    1.1000  2.630e-09    failed    failed  1.668e-05   25.0000 1
559    1.5000    2.7000    1.9000    1.1000  2.631e-09    failed    failed  1.761e-05   25.0000 1
560    1.8000    2.7000    1.9000    1.1000  2.631e-09  5.832e-09  5.832e-09  1.854e-05   25.0000 1
561    2.1000    2.7000    1.9000    1.1000  2.632e-09  4.173e-09  4.173e-09  1.947e-05   25.0000 1
562    2.4000    2.7000    1.9000    1.1000  2.632e-09  3.500e-09  3.500e-09  2.040e-05   25.0000 1
563    2.7000    2.7000    1.9000    1.1000  2.633e-09  3.127e-09  3.127e-09  2.133e-05   25.0000 1
564    3.0000    2.7000    1.9000    1.1000  2.634e-09  2.886e-09  2.886e-09  2.226e-05   25.0000 1
565    0.1000    3.0000    1.9000    1.1000  2.503e-09    failed    failed  1.471e-05   25.0000 1
566    0.3000    3.0000    1.9000    1.1000  2.503e-09    failed    failed  1.533e-05   25.0000 1
567    0.6000    3.0000    1.9000    1.1000  2.504e-09    failed    failed  1.626e-05   25.0000 1
568    0.9000    3.0000    1.9000    1.1000  2.505e-09    failed    failed  1.719e-05   25.0000 1
569    1.0000    3.0000    1.9000    1.1000  2.504e-09    failed    failed  1.750e-05   25.0000 1
570    1.2000    3.0000    1.9000    1.1000  2.506e-09    failed    failed  1.812e-05   25.0000 1
571    1.5000    3.0000    1.9000    1.1000  2.506e-09    failed    failed  1.905e-05   25.0000 1
572    1.8000    3.0000    1.9000    1.1000  2.507e-09  5.836e-09  5.836e-09  1.998e-05   25.0000 1
573    2.1000    3.0000    1.9000    1.1000  2.507e-09  4.175e-09  4.175e-09  2.091e-05   25.0000 1
574    2.4000    3.0000    1.9000    1.1000  2.508e-09  3.502e-09  3.502e-09  2.184e-05   25.0000 1
575    2.7000    3.0000    1.9000    1.1000  2.508e-09  3.128e-09  3.128e-09  2.277e-05   25.0000 1
576    3.0000    3.0000    1.9000    1.1000  2.509e-09  2.886e-09  2.886e-09  2.370e-05   25.0000 1
577    0.1000    0.1000    2.1000    1.1000    failed  8.496e-10    failed  8.300e-07   25.0000 1
578    0.3000    0.1000    2.1000    1.1000    failed  4.649e-10    failed  1.450e-06   25.0000 1
579    0.6000    0.1000    2.1000    1.1000    failed  3.109e-10    failed  2.380e-06   25.0000 1
580    0.9000    0.1000    2.1000    1.1000    failed  2.428e-10    failed  3.310e-06   25.0000 1
581    1.0000    0.1000    2.1000    1.1000    failed  2.280e-10    failed  3.620e-06   25.0000 1
582    1.2000    0.1000    2.1000    1.1000    failed  2.059e-10    failed  4.240e-06   25.0000 1
583    1.5000    0.1000    2.1000    1.1000    failed  1.835e-10    failed  5.170e-06   25.0000 1
584    1.8000    0.1000    2.1000    1.1000    failed  1.675e-10    failed  6.100e-06   25.0000 1
585    2.1000    0.1000    2.1000    1.1000    failed  1.569e-10    failed  7.030e-06   25.0000 1
586    2.4000    0.1000    2.1000    1.1000    failed  1.491e-10    failed  7.960e-06   25.0000 1
587    2.7000    0.1000    2.1000    1.1000    failed  1.433e-10    failed  8.890e-06   25.0000 1
588    3.0000    0.1000    2.1000    1.1000    failed  1.389e-10    failed  9.820e-06   25.0000 1
589    0.1000    0.3000    2.1000    1.1000    failed    failed    failed  1.870e-06   25.0000 1
590    0.3000    0.3000    2.1000    1.1000    failed    failed    failed  2.490e-06   25.0000 1
591    0.6000    0.3000    2.1000    1.1000    failed    failed    failed  3.420e-06   25.0000 1
592    0.9000    0.3000    2.1000    1.1000    failed    failed    failed  4.350e-06   25.0000 1
593    1.0000    0.3000    2.1000    1.1000    failed    failed    failed  4.660e-06   25.0000 1
594    1.2000    0.3000    2.1000    1.1000    failed    failed    failed  5.280e-06   25.0000 1
595    1.5000    0.3000    2.1000    1.1000    failed    failed    failed  6.210e-06   25.0000 1
596    1.8000    0.3000    2.1000    1.1000    failed  5.922e-09    failed  7.140e-06   25.0000 1
597    2.1000    0.3000    2.1000    1.1000    failed  4.241e-09    failed  8.070e-06   25.0000 1
598    2.4000    0.3000    2.1000    1.1000    failed  3.552e-09    failed  9.000e-06   25.0000 1
599    2.7000    0.3000    2.1000    1.1000    failed  3.164e-09    failed  9.930e-06   25.0000 1
600    3.0000    0.3000    2.1000    1.1000    failed  2.914e-09    failed  1.086e-05   25.0000 1
601    0.1000    0.6000    2.1000    1.1000    failed    failed    failed  3.430e-06   25.0000 1
602    0.3000    0.6000    2.1000    1.1000    failed    failed    failed  4.050e-06   25.0000 1
603    0.6000    0.6000    2.1000    1.1000    failed    failed    failed  4.980e-06   25.0000 1
604    0.9000    0.6000    2.1000    1.1000    failed    failed    failed  5.910e-06   25.0000 1
605    1.0000    0.6000    2.1000    1.1000    failed    failed    failed  6.220e-06   25.0000 1
606    1.2000    0.6000    2.1000    1.1000    failed    failed    failed  6.840e-06   25.0000 1
607    1.5000    0.6000    2.1000    1.1000    failed    failed    failed  7.770e-06   25.0000 1
608    1.8000    0.6000    2.1000    1.1000    failed  5.926e-09    failed  8.700e-06   25.0000 1
609    2.1000    0.6000    2.1000    1.1000    failed  4.245e-09    failed  9.630e-06   25.0000 1
610    2.4000    0.6000    2.1000    1.1000    failed  3.552e-09    failed  1.056e-05   25.0000 1
611    2.7000    0.6000    2.1000    1.1000    failed  3.167e-09    failed  1.149e-05   25.0000 1
612    3.0000    0.6000    2.1000    1.1000    failed  2.915e-09    failed  1.242e-05   25.0000 1
613    0.1000    0.9000    2.1000    1.1000    failed    failed    failed  4.990e-06   25.0000 1
614    0.3000    0.9000    2.1000    1.1000    failed    failed    failed  5.610e-06   25.0000 1
615    0.6000    0.9000    2.1000    1.1000    failed    failed    failed  6.540e-06   25.0000 1
616    0.9000    0.9000    2.1000    1.1000    failed    failed    failed  7.470e-06   25.0000 1
617    1.0000    0.9000    2.1000    1.1000    failed    failed    failed  7.780e-06   25.0000 1
618    1.2000    0.9000    2.1000    1.1000    failed    failed    failed  8.400e-06   25.0000 1
619    1.5000    0.9000    2.1000    1.1000    failed    failed    failed  9.330e-06   25.0000 1
620    1.8000    0.9000    2.1000    1.1000    failed  5.930e-09    failed  1.026e-05   25.0000 1
621    2.1000    0.9000    2.1000    1.1000    failed  4.247e-09    failed  1.119e-05   25.0000 1
622    2.4000    0.9000    2.1000    1.1000    failed  3.554e-09    failed  1.212e-05   25.0000 1
623    2.7000    0.9000    2.1000    1.1000    failed  3.166e-09    failed  1.305e-05   25.0000 1
624    3.0000    0.9000    2.1000    1.1000    failed  2.916e-09    failed  1.398e-05   25.0000 1
625    0.1000    1.0000    2.1000    1.1000    failed    failed    failed  5.510e-06   25.0000 1
626    0.3000    1.0000    2.1000    1.1000    failed    failed    failed  6.130e-06   25.0000 1
627    0.6000    1.0000    2.1000    1.1000    failed    failed    failed  7.060e-06   25.0000 1
628    0.9000    1.0000    2.1000    1.1000    failed    failed    failed  7.990e-06   25.0000 1
629    1.0000    1.0000    2.1000    1.1000    failed    failed    failed  8.300e-06   25.0000 1
630    1.2000    1.0000    2.1000    1.1000    failed    failed    failed  8.920e-06   25.0000 1
631    1.5000    1.0000    2.1000    1.1000    failed    failed    failed  9.850e-06   25.0000 1
632    1.8000    1.0000    2.1000    1.1000    failed  5.934e-09    failed  1.078e-05   25.0000 1
633    2.1000    1.0000    2.1000    1.1000    failed  4.246e-09    failed  1.171e-05   25.0000 1
634    2.4000    1.0000    2.1000    1.1000    failed  3.555e-09    failed  1.264e-05   25.0000 1
635    2.7000    1.0000    2.1000    1.1000    failed  3.167e-09    failed  1.357e-05   25.0000 1
636    3.0000    1.0000    2.1000    1.1000    failed  2.916e-09    failed  1.450e-05   25.0000 1
637    0.1000    1.2000    2.1000    1.1000  6.639e-09    failed    failed  6.550e-06   25.0000 1
638    0.3000    1.2000    2.1000    1.1000  6.645e-09    failed    failed  7.170e-06   25.0000 1
639    0.6000    1.2000    2.1000    1.1000  6.650e-09    failed    failed  8.100e-06   25.0000 1
640    0.9000    1.2000    2.1000    1.1000  6.659e-09    failed    failed  9.030e-06   25.0000 1
641    1.0000    1.2000    2.1000    1.1000  6.664e-09    failed    failed  9.340e-06   25.0000 1
642    1.2000    1.2000    2.1000    1.1000  6.668e-09    failed    failed  9.960e-06   25.0000 1
643    1.5000    1.2000    2.1000    1.1000  6.675e-09    failed    failed  1.089e-05   25.0000 1
644    1.8000    1.2000    2.1000    1.1000  6.684e-09  5.810e-09  6.684e-09  1.182e-05   25.0000 1
645    2.1000    1.2000    2.1000    1.1000  6.691e-09  4.162e-09  6.691e-09  1.275e-05   25.0000 1
646    2.4000    1.2000    2.1000    1.1000  6.701e-09  3.494e-09  6.701e-09  1.368e-05   25.0000 1
647    2.7000    1.2000    2.1000    1.1000  6.710e-09  3.121e-09  6.710e-09  1.461e-05   25.0000 1
648    3.0000    1.2000    2.1000    1.1000  6.717e-09  2.881e-09  6.717e-09  1.554e-05   25.0000 1
649    0.1000    1.5000    2.1000    1.1000  4.149e-09    failed    failed  8.110e-06   25.0000 1
650    0.3000    1.5000    2.1000    1.1000  4.151e-09    failed    failed  8.730e-06   25.0000 1
651    0.6000    1.5000    2.1000    1.1000  4.153e-09    failed    failed  9.660e-06   25.0000 1
652    0.9000    1.5000    2.1000    1.1000  4.154e-09    failed    failed  1.059e-05   25.0000 1
653    1.0000    1.5000    2.1000    1.1000  4.155e-09    failed    failed  1.090e-05   25.0000 1
654    1.2000    1.5000    2.1000    1.1000  4.158e-09    failed    failed  1.152e-05   25.0000 1
655    1.5000    1.5000    2.1000    1.1000  4.159e-09    failed    failed  1.245e-05   25.0000 1
656    1.8000    1.5000    2.1000    1.1000  4.161e-09  5.813e-09  5.813e-09  1.338e-05   25.0000 1
657    2.1000    1.5000    2.1000    1.1000  4.165e-09  4.164e-09  4.165e-09  1.431e-05   25.0000 1
658    2.4000    1.5000    2.1000    1.1000  4.167e-09  3.495e-09  4.167e-09  1.524e-05   25.0000 1
659    2.7000    1.5000    2.1000    1.1000  4.168e-09  3.123e-09  4.168e-09  1.617e-05   25.0000 1
660    3.0000    1.5000    2.1000    1.1000  4.171e-09  2.881e-09  4.171e-09  1.710e-05   25.0000 1
661    0.1000    1.8000    2.1000    1.1000  3.389e-09    failed    failed  9.670e-06   25.0000 1
662    0.3000    1.8000    2.1000    1.1000  3.391e-09    failed    failed  1.029e-05   25.0000 1
663    0.6000    1.8000    2.1000    1.1000  3.392e-09    failed    failed  1.122e-05   25.0000 1
664    0.9000    1.8000    2.1000    1.1000  3.394e-09    failed    failed  1.215e-05   25.0000 1
665    1.0000    1.8000    2.1000    1.1000  3.394e-09    failed    failed  1.246e-05   25.0000 1
666    1.2000    1.8000    2.1000    1.1000  3.394e-09    failed    failed  1.308e-05   25.0000 1
667    1.5000    1.8000    2.1000    1.1000  3.396e-09    failed    failed  1.401e-05   25.0000 1
668    1.8000    1.8000    2.1000    1.1000  3.397e-09  5.812e-09  5.812e-09  1.494e-05   25.0000 1
669    2.1000    1.8000    2.1000    1.1000  3.398e-09  4.167e-09  4.167e-09  1.587e-05   25.0000 1
670    2.4000    1.8000    2.1000    1.1000  3.399e-09  3.497e-09  3.497e-09  1.680e-05   25.0000 1
671    2.7000    1.8000    2.1000    1.1000  3.400e-09  3.124e-09  3.400e-09  1.773e-05   25.0000 1
672    3.0000    1.8000    2.1000    1.1000  3.402e-09  2.883e-09  3.402e-09  1.866e-05   25.0000 1
673    0.1000    2.1000    2.1000    1.1000  3.004e-09    failed    failed  1.123e-05   25.0000 1
674    0.3000    2.1000    2.1000    1.1000  3.004e-09    failed    failed  1.185e-05   25.0000 1
675    0.6000    2.1000    2.1000    1.1000  3.004e-09    failed    failed  1.278e-05   25.0000 1
676    0.9000    2.1000    2.1000    1.1000  3.006e-09    failed    failed  1.371e-05   25.0000 1
677    1.0000    2.1000    2.1000    1.1000  3.007e-09    failed    failed  1.402e-05   25.0000 1
678    1.2000    2.1000    2.1000    1.1000  3.007e-09    failed    failed  1.464e-05   25.0000 1
679    1.5000    2.1000    2.1000    1.1000  3.008e-09    failed    failed  1.557e-05   25.0000 1
680    1.8000    2.1000    2.1000    1.1000  3.009e-09  5.823e-09  5.823e-09  1.650e-05   25.0000 1
681    2.1000    2.1000    2.1000    1.1000  3.008e-09  4.169e-09  4.169e-09  1.743e-05   25.0000 1
682    2.4000    2.1000    2.1000    1.1000  3.011e-09  3.498e-09  3.498e-09  1.836e-05   25.0000 1
683    2.7000    2.1000    2.1000    1.1000  3.012e-09  3.125e-09  3.125e-09  1.929e-05   25.0000 1
684    3.0000    2.1000    2.1000    1.1000  3.012e-09  2.884e-09  3.012e-09  2.022e-05   25.0000 1
685    0.1000    2.4000    2.1000    1.1000  2.764e-09    failed    failed  1.279e-05   25.0000 1
686    0.3000    2.4000    2.1000    1.1000  2.765e-09    failed    failed  1.341e-05   25.0000 1
687    0.6000    2.4000    2.1000    1.1000  2.765e-09    failed    failed  1.434e-05   25.0000 1
688    0.9000    2.4000    2.1000    1.1000  2.766e-09    failed    failed  1.527e-05   25.0000 1
689    1.0000    2.4000    2.1000    1.1000  2.766e-09    failed    failed  1.558e-05   25.0000 1
690    1.2000    2.4000    2.1000    1.1000  2.767e-09    failed    failed  1.620e-05   25.0000 1
691    1.5000    2.4000    2.1000    1.1000  2.768e-09    failed    failed  1.713e-05   25.0000 1
692    1.8000    2.4000    2.1000    1.1000  2.769e-09  5.827e-09  5.827e-09  1.806e-05   25.0000 1
693    2.1000    2.4000    2.1000    1.1000  2.770e-09  4.171e-09  4.171e-09  1.899e-05   25.0000 1
694    2.4000    2.4000    2.1000    1.1000  2.770e-09  3.500e-09  3.500e-09  1.992e-05   25.0000 1
695    2.7000    2.4000    2.1000    1.1000  2.771e-09  3.126e-09  3.126e-09  2.085e-05   25.0000 1
696    3.0000    2.4000    2.1000    1.1000  2.771e-09  2.883e-09  2.883e-09  2.178e-05   25.0000 1
697    0.1000    2.7000    2.1000    1.1000  2.600e-09    failed    failed  1.435e-05   25.0000 1
698    0.3000    2.7000    2.1000    1.1000  2.601e-09    failed    failed  1.497e-05   25.0000 1
699    0.6000    2.7000    2.1000    1.1000  2.601e-09    failed    failed  1.590e-05   25.0000 1
700    0.9000    2.7000    2.1000    1.1000  2.602e-09    failed    failed  1.683e-05   25.0000 1
701    1.0000    2.7000    2.1000    1.1000  2.602e-09    failed    failed  1.714e-05   25.0000 1
702    1.2000    2.7000    2.1000    1.1000  2.602e-09    failed    failed  1.776e-05   25.0000 1
703    1.5000    2.7000    2.1000    1.1000  2.603e-09    failed    failed  1.869e-05   25.0000 1
704    1.8000    2.7000    2.1000    1.1000  2.604e-09  5.834e-09  5.834e-09  1.962e-05   25.0000 1
705    2.1000    2.7000    2.1000    1.1000  2.605e-09  4.174e-09  4.174e-09  2.055e-05   25.0000 1
706    2.4000    2.7000    2.1000    1.1000  2.605e-09  3.501e-09  3.501e-09  2.148e-05   25.0000 1
707    2.7000    2.7000    2.1000    1.1000  2.605e-09  3.126e-09  3.126e-09  2.241e-05   25.0000 1
708    3.0000    2.7000    2.1000    1.1000  2.606e-09  2.886e-09  2.886e-09  2.334e-05   25.0000 1
709    0.1000    3.0000    2.1000    1.1000  2.480e-09    failed    failed  1.591e-05   25.0000 1
710    0.3000    3.0000    2.1000    1.1000  2.480e-09    failed    failed  1.653e-05   25.0000 1
711    0.6000    3.0000    2.1000    1.1000  2.481e-09    failed    failed  1.746e-05   25.0000 1
712    0.9000    3.0000    2.1000    1.1000  2.481e-09    failed    failed  1.839e-05   25.0000 1
713    1.0000    3.0000    2.1000    1.1000  2.482e-09    failed    failed  1.870e-05   25.0000 1
714    1.2000    3.0000    2.1000    1.1000  2.482e-09    failed    failed  1.932e-05   25.0000 1
715    1.5000    3.0000    2.1000    1.1000  2.482e-09    failed    failed  2.025e-05   25.0000 1
716    1.8000    3.0000    2.1000    1.1000  2.483e-09  5.839e-09  5.839e-09  2.118e-05   25.0000 1
717    2.1000    3.0000    2.1000    1.1000  2.484e-09  4.175e-09  4.175e-09  2.211e-05   25.0000 1
718    2.4000    3.0000    2.1000    1.1000  2.484e-09  3.502e-09  3.502e-09  2.304e-05   25.0000 1
719    2.7000    3.0000    2.1000    1.1000  2.485e-09  3.128e-09  3.128e-09  2.397e-05   25.0000 1
720    3.0000    3.0000    2.1000    1.1000  2.485e-09  2.887e-09  2.887e-09  2.490e-05   25.0000 1
721    0.1000    0.1000    2.4000    1.1000    failed  8.406e-10    failed  8.900e-07   25.0000 1
722    0.3000    0.1000    2.4000    1.1000    failed  4.608e-10    failed  1.510e-06   25.0000 1
723    0.6000    0.1000    2.4000    1.1000    failed  3.079e-10    failed  2.440e-06   25.0000 1
724    0.9000    0.1000    2.4000    1.1000    failed  2.405e-10    failed  3.370e-06   25.0000 1
725    1.0000    0.1000    2.4000    1.1000    failed  2.245e-10    failed  3.680e-06   25.0000 1
726    1.2000    0.1000    2.4000    1.1000    failed  2.040e-10    failed  4.300e-06   25.0000 1
727    1.5000    0.1000    2.4000    1.1000    failed  1.818e-10    failed  5.230e-06   25.0000 1
728    1.8000    0.1000    2.4000    1.1000    failed  1.659e-10    failed  6.160e-06   25.0000 1
729    2.1000    0.1000    2.4000    1.1000    failed  1.542e-10    failed  7.090e-06   25.0000 1
730    2.4000    0.1000    2.4000    1.1000    failed  1.477e-10    failed  8.020e-06   25.0000 1
731    2.7000    0.1000    2.4000    1.1000    failed  1.420e-10    failed  8.950e-06   25.0000 1
732    3.0000    0.1000    2.4000    1.1000    failed  1.375e-10    failed  9.880e-06   25.0000 1
733    0.1000    0.3000    2.4000    1.1000    failed    failed    failed  2.050e-06   25.0000 1
734    0.3000    0.3000    2.4000    1.1000    failed    failed    failed  2.670e-06   25.0000 1
735    0.6000    0.3000    2.4000    1.1000    failed    failed    failed  3.600e-06   25.0000 1
736    0.9000    0.3000    2.4000    1.1000    failed    failed    failed  4.530e-06   25.0000 1
737    1.0000    0.3000    2.4000    1.1000    failed    failed    failed  4.840e-06   25.0000 1
738    1.2000    0.3000    2.4000    1.1000    failed    failed    failed  5.460e-06   25.0000 1
739    1.5000    0.3000    2.4000    1.1000    failed    failed    failed  6.390e-06   25.0000 1
740    1.8000    0.3000    2.4000    1.1000    failed  5.922e-09    failed  7.320e-06   25.0000 1
741    2.1000    0.3000    2.4000    1.1000    failed  4.241e-09    failed  8.250e-06   25.0000 1
742    2.4000    0.3000    2.4000    1.1000    failed  3.551e-09    failed  9.180e-06   25.0000 1
743    2.7000    0.3000    2.4000    1.1000    failed  3.164e-09    failed  1.011e-05   25.0000 1
744    3.0000    0.3000    2.4000    1.1000    failed  2.913e-09    failed  1.104e-05   25.0000 1
745    0.1000    0.6000    2.4000    1.1000    failed    failed    failed  3.790e-06   25.0000 1
746    0.3000    0.6000    2.4000    1.1000    failed    failed    failed  4.410e-06   25.0000 1
747    0.6000    0.6000    2.4000    1.1000    failed    failed    failed  5.340e-06   25.0000 1
748    0.9000    0.6000    2.4000    1.1000    failed    failed    failed  6.270e-06   25.0000 1
749    1.0000    0.6000    2.4000    1.1000    failed    failed    failed  6.580e-06   25.0000 1
750    1.2000    0.6000    2.4000    1.1000    failed    failed    failed  7.200e-06   25.0000 1
751    1.5000    0.6000    2.4000    1.1000    failed    failed    failed  8.130e-06   25.0000 1
752    1.8000    0.6000    2.4000    1.1000    failed  5.926e-09    failed  9.060e-06   25.0000 1
753    2.1000    0.6000    2.4000    1.1000    failed  4.244e-09    failed  9.990e-06   25.0000 1
754    2.4000    0.6000    2.4000    1.1000    failed  3.554e-09    failed  1.092e-05   25.0000 1
755    2.7000    0.6000    2.4000    1.1000    failed  3.165e-09    failed  1.185e-05   25.0000 1
756    3.0000    0.6000    2.4000    1.1000    failed  2.914e-09    failed  1.278e-05   25.0000 1
757    0.1000    0.9000    2.4000    1.1000    failed    failed    failed  5.530e-06   25.0000 1
758    0.3000    0.9000    2.4000    1.1000    failed    failed    failed  6.150e-06   25.0000 1
759    0.6000    0.9000    2.4000    1.1000    failed    failed    failed  7.080e-06   25.0000 1
760    0.9000    0.9000    2.4000    1.1000    failed    failed    failed  8.010e-06   25.0000 1
761    1.0000    0.9000    2.4000    1.1000    failed    failed    failed  8.320e-06   25.0000 1
762    1.2000    0.9000    2.4000    1.1000    failed    failed    failed  8.940e-06   25.0000 1
763    1.5000    0.9000    2.4000    1.1000    failed    failed    failed  9.870e-06   25.0000 1
764    1.8000    0.9000    2.4000    1.1000    failed  5.934e-09    failed  1.080e-05   25.0000 1
765    2.1000    0.9000    2.4000    1.1000    failed  4.246e-09    failed  1.173e-05   25.0000 1
766    2.4000    0.9000    2.4000    1.1000    failed  3.554e-09    failed  1.266e-05   25.0000 1
767    2.7000    0.9000    2.4000    1.1000    failed  3.167e-09    failed  1.359e-05   25.0000 1
768    3.0000    0.9000    2.4000    1.1000    failed  2.915e-09    failed  1.452e-05   25.0000 1
769    0.1000    1.0000    2.4000    1.1000    failed    failed    failed  6.110e-06   25.0000 1
770    0.3000    1.0000    2.4000    1.1000    failed    failed    failed  6.730e-06   25.0000 1
771    0.6000    1.0000    2.4000    1.1000    failed    failed    failed  7.660e-06   25.0000 1
772    0.9000    1.0000    2.4000    1.1000    failed    failed    failed  8.590e-06   25.0000 1
773    1.0000    1.0000    2.4000    1.1000    failed    failed    failed  8.900e-06   25.0000 1
774    1.2000    1.0000    2.4000    1.1000    failed    failed    failed  9.520e-06   25.0000 1
775    1.5000    1.0000    2.4000    1.1000    failed    failed    failed  1.045e-05   25.0000 1
776    1.8000    1.0000    2.4000    1.1000    failed  5.934e-09    failed  1.138e-05   25.0000 1
777    2.1000    1.0000    2.4000    1.1000    failed  4.247e-09    failed  1.231e-05   25.0000 1
778    2.4000    1.0000    2.4000    1.1000    failed  3.555e-09    failed  1.324e-05   25.0000 1
779    2.7000    1.0000    2.4000    1.1000    failed  3.167e-09    failed  1.417e-05   25.0000 1
780    3.0000    1.0000    2.4000    1.1000    failed  2.915e-09    failed  1.510e-05   25.0000 1
781    0.1000    1.2000    2.4000    1.1000  6.186e-09    failed    failed  7.270e-06   25.0000 1
782    0.3000    1.2000    2.4000    1.1000  6.188e-09    failed    failed  7.890e-06   25.0000 1
783    0.6000    1.2000    2.4000    1.1000  6.194e-09    failed    failed  8.820e-06   25.0000 1
784    0.9000    1.2000    2.4000    1.1000  6.202e-09    failed    failed  9.750e-06   25.0000 1
785    1.0000    1.2000    2.4000    1.1000  6.203e-09    failed    failed  1.006e-05   25.0000 1
786    1.2000    1.2000    2.4000    1.1000  6.208e-09    failed    failed  1.068e-05   25.0000 1
787    1.5000    1.2000    2.4000    1.1000  6.214e-09    failed    failed  1.161e-05   25.0000 1
788    1.8000    1.2000    2.4000    1.1000  6.219e-09  5.811e-09  6.219e-09  1.254e-05   25.0000 1
789    2.1000    1.2000    2.4000    1.1000  6.226e-09  4.163e-09  6.226e-09  1.347e-05   25.0000 1
790    2.4000    1.2000    2.4000    1.1000  6.232e-09  3.493e-09  6.232e-09  1.440e-05   25.0000 1
791    2.7000    1.2000    2.4000    1.1000  6.238e-09  3.122e-09  6.238e-09  1.533e-05   25.0000 1
792    3.0000    1.2000    2.4000    1.1000  6.244e-09  2.880e-09  6.244e-09  1.626e-05   25.0000 1
793    0.1000    1.5000    2.4000    1.1000  4.019e-09    failed    failed  9.010e-06   25.0000 1
794    0.3000    1.5000    2.4000    1.1000  4.020e-09    failed    failed  9.630e-06   25.0000 1
795    0.6000    1.5000    2.4000    1.1000  4.022e-09    failed    failed  1.056e-05   25.0000 1
796    0.9000    1.5000    2.4000    1.1000  4.024e-09    failed    failed  1.149e-05   25.0000 1
797    1.0000    1.5000    2.4000    1.1000  4.025e-09    failed    failed  1.180e-05   25.0000 1
798    1.2000    1.5000    2.4000    1.1000  4.026e-09    failed    failed  1.242e-05   25.0000 1
799    1.5000    1.5000    2.4000    1.1000  4.028e-09    failed    failed  1.335e-05   25.0000 1
800    1.8000    1.5000    2.4000    1.1000  4.031e-09  5.815e-09  5.815e-09  1.428e-05   25.0000 1
801    2.1000    1.5000    2.4000    1.1000  4.031e-09  4.165e-09  4.165e-09  1.521e-05   25.0000 1
802    2.4000    1.5000    2.4000    1.1000  4.034e-09  3.495e-09  4.034e-09  1.614e-05   25.0000 1
803    2.7000    1.5000    2.4000    1.1000  4.036e-09  3.123e-09  4.036e-09  1.707e-05   25.0000 1
804    3.0000    1.5000    2.4000    1.1000  4.038e-09  2.882e-09  4.038e-09  1.800e-05   25.0000 1
805    0.1000    1.8000    2.4000    1.1000  3.316e-09    failed    failed  1.075e-05   25.0000 1
806    0.3000    1.8000    2.4000    1.1000  3.317e-09    failed    failed  1.137e-05   25.0000 1
807    0.6000    1.8000    2.4000    1.1000  3.318e-09    failed    failed  1.230e-05   25.0000 1
808    0.9000    1.8000    2.4000    1.1000  3.319e-09    failed    failed  1.323e-05   25.0000 1
809    1.0000    1.8000    2.4000    1.1000  3.320e-09    failed    failed  1.354e-05   25.0000 1
810    1.2000    1.8000    2.4000    1.1000  3.320e-09    failed    failed  1.416e-05   25.0000 1
811    1.5000    1.8000    2.4000    1.1000  3.322e-09    failed    failed  1.509e-05   25.0000 1
812    1.8000    1.8000    2.4000    1.1000  3.323e-09  5.820e-09  5.820e-09  1.602e-05   25.0000 1
813    2.1000    1.8000    2.4000    1.1000  3.323e-09  4.167e-09  4.167e-09  1.695e-05   25.0000 1
[...]
9018    1.2000    1.8000    2.7000    3.0000  3.268e-09  3.571e-09  3.571e-09  1.752e-05   25.0000 1
9019    1.5000    1.8000    2.7000    3.0000  3.270e-09  2.972e-09  3.270e-09  1.902e-05   25.0000 1
9020    1.8000    1.8000    2.7000    3.0000  3.270e-09  2.668e-09  3.270e-09  2.052e-05   25.0000 1
9021    2.1000    1.8000    2.7000    3.0000  3.272e-09  2.481e-09  3.272e-09  2.202e-05   25.0000 1
9022    2.4000    1.8000    2.7000    3.0000  3.273e-09  2.356e-09  3.273e-09  2.352e-05   25.0000 1
9023    2.7000    1.8000    2.7000    3.0000  3.275e-09  2.265e-09  3.275e-09  2.502e-05   25.0000 1
9024    3.0000    1.8000    2.7000    3.0000  3.276e-09  2.196e-09  3.276e-09  2.652e-05   25.0000 1
9025    0.1000    2.1000    2.7000    3.0000  2.914e-09    failed    failed  1.394e-05   25.0000 1
9026    0.3000    2.1000    2.7000    3.0000  2.915e-09    failed    failed  1.494e-05   25.0000 1
9027    0.6000    2.1000    2.7000    3.0000  2.917e-09    failed    failed  1.644e-05   25.0000 1
9028    0.9000    2.1000    2.7000    3.0000  2.918e-09  5.513e-09  5.513e-09  1.794e-05   25.0000 1
9029    1.0000    2.1000    2.7000    3.0000  2.918e-09  4.499e-09  4.499e-09  1.844e-05   25.0000 1
9030    1.2000    2.1000    2.7000    3.0000  2.919e-09  3.573e-09  3.573e-09  1.944e-05   25.0000 1
9031    1.5000    2.1000    2.7000    3.0000  2.920e-09  2.974e-09  2.974e-09  2.094e-05   25.0000 1
9032    1.8000    2.1000    2.7000    3.0000  2.921e-09  2.669e-09  2.921e-09  2.244e-05   25.0000 1
9033    2.1000    2.1000    2.7000    3.0000  2.922e-09  2.482e-09  2.922e-09  2.394e-05   25.0000 1
9034    2.4000    2.1000    2.7000    3.0000  2.923e-09  2.357e-09  2.923e-09  2.544e-05   25.0000 1
9035    2.7000    2.1000    2.7000    3.0000  2.923e-09  2.266e-09  2.923e-09  2.694e-05   25.0000 1
9036    3.0000    2.1000    2.7000    3.0000  2.925e-09  2.196e-09  2.925e-09  2.844e-05   25.0000 1
9037    0.1000    2.4000    2.7000    3.0000  2.696e-09    failed    failed  1.586e-05   25.0000 1
9038    0.3000    2.4000    2.7000    3.0000  2.697e-09    failed    failed  1.686e-05   25.0000 1
9039    0.6000    2.4000    2.7000    3.0000  2.698e-09    failed    failed  1.836e-05   25.0000 1
9040    0.9000    2.4000    2.7000    3.0000  2.699e-09  5.519e-09  5.519e-09  1.986e-05   25.0000 1
9041    1.0000    2.4000    2.7000    3.0000  2.699e-09  4.503e-09  4.503e-09  2.036e-05   25.0000 1
9042    1.2000    2.4000    2.7000    3.0000  2.700e-09  3.575e-09  3.575e-09  2.136e-05   25.0000 1
9043    1.5000    2.4000    2.7000    3.0000  2.701e-09  2.975e-09  2.975e-09  2.286e-05   25.0000 1
9044    1.8000    2.4000    2.7000    3.0000  2.702e-09  2.670e-09  2.702e-09  2.436e-05   25.0000 1
9045    2.1000    2.4000    2.7000    3.0000  2.703e-09  2.483e-09  2.703e-09  2.586e-05   25.0000 1
9046    2.4000    2.4000    2.7000    3.0000  2.703e-09  2.357e-09  2.703e-09  2.736e-05   25.0000 1
9047    2.7000    2.4000    2.7000    3.0000  2.705e-09  2.266e-09  2.705e-09  2.886e-05   25.0000 1
9048    3.0000    2.4000    2.7000    3.0000  2.705e-09  2.197e-09  2.705e-09  3.036e-05   25.0000 1
9049    0.1000    2.7000    2.7000    3.0000  2.545e-09    failed    failed  1.778e-05   25.0000 1
9050    0.3000    2.7000    2.7000    3.0000  2.546e-09    failed    failed  1.878e-05   25.0000 1
9051    0.6000    2.7000    2.7000    3.0000  2.546e-09    failed    failed  2.028e-05   25.0000 1
9052    0.9000    2.7000    2.7000    3.0000  2.547e-09  5.526e-09  5.526e-09  2.178e-05   25.0000 1
9053    1.0000    2.7000    2.7000    3.0000  2.547e-09  4.508e-09  4.508e-09  2.228e-05   25.0000 1
9054    1.2000    2.7000    2.7000    3.0000  2.548e-09  3.577e-09  3.577e-09  2.328e-05   25.0000 1
9055    1.5000    2.7000    2.7000    3.0000  2.549e-09  2.976e-09  2.976e-09  2.478e-05   25.0000 1
9056    1.8000    2.7000    2.7000    3.0000  2.550e-09  2.671e-09  2.671e-09  2.628e-05   25.0000 1
9057    2.1000    2.7000    2.7000    3.0000  2.551e-09  2.483e-09  2.551e-09  2.778e-05   25.0000 1
9058    2.4000    2.7000    2.7000    3.0000  2.551e-09  2.358e-09  2.551e-09  2.928e-05   25.0000 1
9059    2.7000    2.7000    2.7000    3.0000  2.551e-09  2.268e-09  2.551e-09  3.078e-05   25.0000 1
9060    3.0000    2.7000    2.7000    3.0000  2.553e-09  2.198e-09  2.553e-09  3.228e-05   25.0000 1
9061    0.1000    3.0000    2.7000    3.0000  2.435e-09    failed    failed  1.970e-05   25.0000 1
9062    0.3000    3.0000    2.7000    3.0000  2.435e-09    failed    failed  2.070e-05   25.0000 1
9063    0.6000    3.0000    2.7000    3.0000  2.436e-09    failed    failed  2.220e-05   25.0000 1
9064    0.9000    3.0000    2.7000    3.0000  2.436e-09  5.533e-09  5.533e-09  2.370e-05   25.0000 1
9065    1.0000    3.0000    2.7000    3.0000  2.437e-09  4.512e-09  4.512e-09  2.420e-05   25.0000 1
9066    1.2000    3.0000    2.7000    3.0000  2.437e-09  3.579e-09  3.579e-09  2.520e-05   25.0000 1
9067    1.5000    3.0000    2.7000    3.0000  2.437e-09  2.976e-09  2.976e-09  2.670e-05   25.0000 1
9068    1.8000    3.0000    2.7000    3.0000  2.438e-09  2.672e-09  2.672e-09  2.820e-05   25.0000 1
9069    2.1000    3.0000    2.7000    3.0000  2.439e-09  2.485e-09  2.485e-09  2.970e-05   25.0000 1
9070    2.4000    3.0000    2.7000    3.0000  2.440e-09  2.359e-09  2.440e-09  3.120e-05   25.0000 1
9071    2.7000    3.0000    2.7000    3.0000  2.440e-09  2.267e-09  2.440e-09  3.270e-05   25.0000 1
9072    3.0000    3.0000    2.7000    3.0000  2.441e-09  2.199e-09  2.441e-09  3.420e-05   25.0000 1
9073    0.1000    0.1000    3.0000    3.0000    failed  5.028e-10    failed  1.200e-06   25.0000 1
9074    0.3000    0.1000    3.0000    3.0000    failed  2.722e-10    failed  2.200e-06   25.0000 1
9075    0.6000    0.1000    3.0000    3.0000    failed  1.910e-10    failed  3.700e-06   25.0000 1
9076    0.9000    0.1000    3.0000    3.0000    failed  1.605e-10    failed  5.200e-06   25.0000 1
9077    1.0000    0.1000    3.0000    3.0000    failed  1.544e-10    failed  5.700e-06   25.0000 1
9078    1.2000    0.1000    3.0000    3.0000    failed  1.442e-10    failed  6.700e-06   25.0000 1
9079    1.5000    0.1000    3.0000    3.0000    failed  1.365e-10    failed  8.200e-06   25.0000 1
9080    1.8000    0.1000    3.0000    3.0000    failed  1.305e-10    failed  9.700e-06   25.0000 1
9081    2.1000    0.1000    3.0000    3.0000    failed  1.250e-10    failed  1.120e-05   25.0000 1
9082    2.4000    0.1000    3.0000    3.0000    failed  1.226e-10    failed  1.270e-05   25.0000 1
9083    2.7000    0.1000    3.0000    3.0000    failed  1.202e-10    failed  1.420e-05   25.0000 1
9084    3.0000    0.1000    3.0000    3.0000    failed  1.182e-10    failed  1.570e-05   25.0000 1
9085    0.1000    0.3000    3.0000    3.0000    failed    failed    failed  2.600e-06   25.0000 1
9086    0.3000    0.3000    3.0000    3.0000    failed    failed    failed  3.600e-06   25.0000 1
9087    0.6000    0.3000    3.0000    3.0000    failed    failed    failed  5.100e-06   25.0000 1
9088    0.9000    0.3000    3.0000    3.0000    failed  5.530e-09    failed  6.600e-06   25.0000 1
9089    1.0000    0.3000    3.0000    3.0000    failed  4.523e-09    failed  7.100e-06   25.0000 1
9090    1.2000    0.3000    3.0000    3.0000    failed  3.594e-09    failed  8.100e-06   25.0000 1
9091    1.5000    0.3000    3.0000    3.0000    failed  2.985e-09    failed  9.600e-06   25.0000 1
9092    1.8000    0.3000    3.0000    3.0000    failed  2.675e-09    failed  1.110e-05   25.0000 1
9093    2.1000    0.3000    3.0000    3.0000    failed  2.487e-09    failed  1.260e-05   25.0000 1
9094    2.4000    0.3000    3.0000    3.0000    failed  2.360e-09    failed  1.410e-05   25.0000 1
9095    2.7000    0.3000    3.0000    3.0000    failed  2.267e-09    failed  1.560e-05   25.0000 1
9096    3.0000    0.3000    3.0000    3.0000    failed  2.197e-09    failed  1.710e-05   25.0000 1
9097    0.1000    0.6000    3.0000    3.0000    failed    failed    failed  4.700e-06   25.0000 1
9098    0.3000    0.6000    3.0000    3.0000    failed    failed    failed  5.700e-06   25.0000 1
9099    0.6000    0.6000    3.0000    3.0000    failed    failed    failed  7.200e-06   25.0000 1
9100    0.9000    0.6000    3.0000    3.0000    failed  5.540e-09    failed  8.700e-06   25.0000 1
9101    1.0000    0.6000    3.0000    3.0000    failed  4.528e-09    failed  9.200e-06   25.0000 1
9102    1.2000    0.6000    3.0000    3.0000    failed  3.597e-09    failed  1.020e-05   25.0000 1
9103    1.5000    0.6000    3.0000    3.0000    failed  2.987e-09    failed  1.170e-05   25.0000 1
9104    1.8000    0.6000    3.0000    3.0000    failed  2.677e-09    failed  1.320e-05   25.0000 1
9105    2.1000    0.6000    3.0000    3.0000    failed  2.488e-09    failed  1.470e-05   25.0000 1
9106    2.4000    0.6000    3.0000    3.0000    failed  2.361e-09    failed  1.620e-05   25.0000 1
9107    2.7000    0.6000    3.0000    3.0000    failed  2.268e-09    failed  1.770e-05   25.0000 1
9108    3.0000    0.6000    3.0000    3.0000    failed  2.198e-09    failed  1.920e-05   25.0000 1
9109    0.1000    0.9000    3.0000    3.0000    failed    failed    failed  6.800e-06   25.0000 1
9110    0.3000    0.9000    3.0000    3.0000    failed    failed    failed  7.800e-06   25.0000 1
9111    0.6000    0.9000    3.0000    3.0000    failed    failed    failed  9.300e-06   25.0000 1
9112    0.9000    0.9000    3.0000    3.0000    failed  5.544e-09    failed  1.080e-05   25.0000 1
9113    1.0000    0.9000    3.0000    3.0000    failed  4.532e-09    failed  1.130e-05   25.0000 1
9114    1.2000    0.9000    3.0000    3.0000    failed  3.599e-09    failed  1.230e-05   25.0000 1
9115    1.5000    0.9000    3.0000    3.0000    failed  2.989e-09    failed  1.380e-05   25.0000 1
9116    1.8000    0.9000    3.0000    3.0000    failed  2.678e-09    failed  1.530e-05   25.0000 1
9117    2.1000    0.9000    3.0000    3.0000    failed  2.490e-09    failed  1.680e-05   25.0000 1
9118    2.4000    0.9000    3.0000    3.0000    failed  2.361e-09    failed  1.830e-05   25.0000 1
9119    2.7000    0.9000    3.0000    3.0000    failed  2.269e-09    failed  1.980e-05   25.0000 1
9120    3.0000    0.9000    3.0000    3.0000    failed  2.199e-09    failed  2.130e-05   25.0000 1
9121    0.1000    1.0000    3.0000    3.0000    failed    failed    failed  7.500e-06   25.0000 1
9122    0.3000    1.0000    3.0000    3.0000    failed    failed    failed  8.500e-06   25.0000 1
9123    0.6000    1.0000    3.0000    3.0000    failed    failed    failed  1.000e-05   25.0000 1
9124    0.9000    1.0000    3.0000    3.0000    failed  5.548e-09    failed  1.150e-05   25.0000 1
9125    1.0000    1.0000    3.0000    3.0000    failed  4.533e-09    failed  1.200e-05   25.0000 1
9126    1.2000    1.0000    3.0000    3.0000    failed  3.600e-09    failed  1.300e-05   25.0000 1
9127    1.5000    1.0000    3.0000    3.0000    failed  2.989e-09    failed  1.450e-05   25.0000 1
9128    1.8000    1.0000    3.0000    3.0000    failed  2.679e-09    failed  1.600e-05   25.0000 1
9129    2.1000    1.0000    3.0000    3.0000    failed  2.489e-09    failed  1.750e-05   25.0000 1
9130    2.4000    1.0000    3.0000    3.0000    failed  2.361e-09    failed  1.900e-05   25.0000 1
9131    2.7000    1.0000    3.0000    3.0000    failed  2.270e-09    failed  2.050e-05   25.0000 1
9132    3.0000    1.0000    3.0000    3.0000    failed  2.201e-09    failed  2.200e-05   25.0000 1
9133    0.1000    1.2000    3.0000    3.0000  5.680e-09    failed    failed  8.900e-06   25.0000 1
9134    0.3000    1.2000    3.0000    3.0000  5.684e-09    failed    failed  9.900e-06   25.0000 1
9135    0.6000    1.2000    3.0000    3.0000  5.689e-09    failed    failed  1.140e-05   25.0000 1
9136    0.9000    1.2000    3.0000    3.0000  5.694e-09  5.496e-09  5.694e-09  1.290e-05   25.0000 1
9137    1.0000    1.2000    3.0000    3.0000  5.696e-09  4.489e-09  5.696e-09  1.340e-05   25.0000 1
9138    1.2000    1.2000    3.0000    3.0000  5.699e-09  3.568e-09  5.699e-09  1.440e-05   25.0000 1
9139    1.5000    1.2000    3.0000    3.0000  5.706e-09  2.971e-09  5.706e-09  1.590e-05   25.0000 1
9140    1.8000    1.2000    3.0000    3.0000  5.711e-09  2.665e-09  5.711e-09  1.740e-05   25.0000 1
9141    2.1000    1.2000    3.0000    3.0000  5.716e-09  2.480e-09  5.716e-09  1.890e-05   25.0000 1
9142    2.4000    1.2000    3.0000    3.0000  5.723e-09  2.355e-09  5.723e-09  2.040e-05   25.0000 1
9143    2.7000    1.2000    3.0000    3.0000  5.727e-09  2.264e-09  5.727e-09  2.190e-05   25.0000 1
9144    3.0000    1.2000    3.0000    3.0000  5.735e-09  2.195e-09  5.735e-09  2.340e-05   25.0000 1
9145    0.1000    1.5000    3.0000    3.0000  3.854e-09    failed    failed  1.100e-05   25.0000 1
9146    0.3000    1.5000    3.0000    3.0000  3.857e-09    failed    failed  1.200e-05   25.0000 1
9147    0.6000    1.5000    3.0000    3.0000  3.856e-09    failed    failed  1.350e-05   25.0000 1
9148    0.9000    1.5000    3.0000    3.0000  3.860e-09  5.502e-09  5.502e-09  1.500e-05   25.0000 1
9149    1.0000    1.5000    3.0000    3.0000  3.861e-09  4.493e-09  4.493e-09  1.550e-05   25.0000 1
9150    1.2000    1.5000    3.0000    3.0000  3.862e-09  3.569e-09  3.862e-09  1.650e-05   25.0000 1
9151    1.5000    1.5000    3.0000    3.0000  3.864e-09  2.971e-09  3.864e-09  1.800e-05   25.0000 1
9152    1.8000    1.5000    3.0000    3.0000  3.865e-09  2.667e-09  3.865e-09  1.950e-05   25.0000 1
9153    2.1000    1.5000    3.0000    3.0000  3.869e-09  2.480e-09  3.869e-09  2.100e-05   25.0000 1
9154    2.4000    1.5000    3.0000    3.0000  3.871e-09  2.355e-09  3.871e-09  2.250e-05   25.0000 1
9155    2.7000    1.5000    3.0000    3.0000  3.872e-09  2.265e-09  3.872e-09  2.400e-05   25.0000 1
9156    3.0000    1.5000    3.0000    3.0000  3.875e-09  2.196e-09  3.875e-09  2.550e-05   25.0000 1
9157    0.1000    1.8000    3.0000    3.0000  3.221e-09    failed    failed  1.310e-05   25.0000 1
9158    0.3000    1.8000    3.0000    3.0000  3.221e-09    failed    failed  1.410e-05   25.0000 1
9159    0.6000    1.8000    3.0000    3.0000  3.223e-09    failed    failed  1.560e-05   25.0000 1
9160    0.9000    1.8000    3.0000    3.0000  3.225e-09  5.511e-09  5.511e-09  1.710e-05   25.0000 1
9161    1.0000    1.8000    3.0000    3.0000  3.225e-09  4.497e-09  4.497e-09  1.760e-05   25.0000 1
9162    1.2000    1.8000    3.0000    3.0000  3.228e-09  3.571e-09  3.571e-09  1.860e-05   25.0000 1
9163    1.5000    1.8000    3.0000    3.0000  3.227e-09  2.973e-09  3.227e-09  2.010e-05   25.0000 1
9164    1.8000    1.8000    3.0000    3.0000  3.228e-09  2.669e-09  3.228e-09  2.160e-05   25.0000 1
9165    2.1000    1.8000    3.0000    3.0000  3.230e-09  2.482e-09  3.230e-09  2.310e-05   25.0000 1
9166    2.4000    1.8000    3.0000    3.0000  3.231e-09  2.356e-09  3.231e-09  2.460e-05   25.0000 1
9167    2.7000    1.8000    3.0000    3.0000  3.233e-09  2.265e-09  3.233e-09  2.610e-05   25.0000 1
9168    3.0000    1.8000    3.0000    3.0000  3.235e-09  2.196e-09  3.235e-09  2.760e-05   25.0000 1
9169    0.1000    2.1000    3.0000    3.0000  2.885e-09    failed    failed  1.520e-05   25.0000 1
9170    0.3000    2.1000    3.0000    3.0000  2.885e-09    failed    failed  1.620e-05   25.0000 1
9171    0.6000    2.1000    3.0000    3.0000  2.887e-09    failed    failed  1.770e-05   25.0000 1
9172    0.9000    2.1000    3.0000    3.0000  2.888e-09  5.517e-09  5.517e-09  1.920e-05   25.0000 1
9173    1.0000    2.1000    3.0000    3.0000  2.889e-09  4.501e-09  4.501e-09  1.970e-05   25.0000 1
9174    1.2000    2.1000    3.0000    3.0000  2.889e-09  3.573e-09  3.573e-09  2.070e-05   25.0000 1
9175    1.5000    2.1000    3.0000    3.0000  2.890e-09  2.974e-09  2.974e-09  2.220e-05   25.0000 1
9176    1.8000    2.1000    3.0000    3.0000  2.891e-09  2.668e-09  2.891e-09  2.370e-05   25.0000 1
9177    2.1000    2.1000    3.0000    3.0000  2.892e-09  2.483e-09  2.892e-09  2.520e-05   25.0000 1
9178    2.4000    2.1000    3.0000    3.0000  2.893e-09  2.357e-09  2.893e-09  2.670e-05   25.0000 1
9179    2.7000    2.1000    3.0000    3.0000  2.894e-09  2.266e-09  2.894e-09  2.820e-05   25.0000 1
9180    3.0000    2.1000    3.0000    3.0000  2.895e-09  2.197e-09  2.895e-09  2.970e-05   25.0000 1
9181    0.1000    2.4000    3.0000    3.0000  2.673e-09    failed    failed  1.730e-05   25.0000 1
9182    0.3000    2.4000    3.0000    3.0000  2.674e-09    failed    failed  1.830e-05   25.0000 1
9183    0.6000    2.4000    3.0000    3.0000  2.675e-09    failed    failed  1.980e-05   25.0000 1
9184    0.9000    2.4000    3.0000    3.0000  2.676e-09  5.522e-09  5.522e-09  2.130e-05   25.0000 1
9185    1.0000    2.4000    3.0000    3.0000  2.676e-09  4.505e-09  4.505e-09  2.180e-05   25.0000 1
9186    1.2000    2.4000    3.0000    3.0000  2.677e-09  3.576e-09  3.576e-09  2.280e-05   25.0000 1
9187    1.5000    2.4000    3.0000    3.0000  2.677e-09  2.975e-09  2.975e-09  2.430e-05   25.0000 1
9188    1.8000    2.4000    3.0000    3.0000  2.678e-09  2.670e-09  2.678e-09  2.580e-05   25.0000 1
9189    2.1000    2.4000    3.0000    3.0000  2.679e-09  2.483e-09  2.679e-09  2.730e-05   25.0000 1
9190    2.4000    2.4000    3.0000    3.0000  2.680e-09  2.358e-09  2.680e-09  2.880e-05   25.0000 1
9191    2.7000    2.4000    3.0000    3.0000  2.681e-09  2.267e-09  2.681e-09  3.030e-05   25.0000 1
9192    3.0000    2.4000    3.0000    3.0000  2.682e-09  2.197e-09  2.682e-09  3.180e-05   25.0000 1
9193    0.1000    2.7000    3.0000    3.0000  2.526e-09    failed    failed  1.940e-05   25.0000 1
9194    0.3000    2.7000    3.0000    3.0000  2.527e-09    failed    failed  2.040e-05   25.0000 1
9195    0.6000    2.7000    3.0000    3.0000  2.528e-09    failed    failed  2.190e-05   25.0000 1
9196    0.9000    2.7000    3.0000    3.0000  2.529e-09  5.530e-09  5.530e-09  2.340e-05   25.0000 1
9197    1.0000    2.7000    3.0000    3.0000  2.529e-09  4.510e-09  4.510e-09  2.390e-05   25.0000 1
9198    1.2000    2.7000    3.0000    3.0000  2.529e-09  3.579e-09  3.579e-09  2.490e-05   25.0000 1
9199    1.5000    2.7000    3.0000    3.0000  2.530e-09  2.976e-09  2.976e-09  2.640e-05   25.0000 1
9200    1.8000    2.7000    3.0000    3.0000  2.531e-09  2.672e-09  2.672e-09  2.790e-05   25.0000 1
9201    2.1000    2.7000    3.0000    3.0000  2.531e-09  2.484e-09  2.531e-09  2.940e-05   25.0000 1
9202    2.4000    2.7000    3.0000    3.0000  2.532e-09  2.359e-09  2.532e-09  3.090e-05   25.0000 1
9203    2.7000    2.7000    3.0000    3.0000  2.533e-09  2.268e-09  2.533e-09  3.240e-05   25.0000 1
9204    3.0000    2.7000    3.0000    3.0000  2.534e-09  2.198e-09  2.534e-09  3.390e-05   25.0000 1
9205    0.1000    3.0000    3.0000    3.0000  2.419e-09    failed    failed  2.150e-05   25.0000 1
9206    0.3000    3.0000    3.0000    3.0000  2.419e-09    failed    failed  2.250e-05   25.0000 1
9207    0.6000    3.0000    3.0000    3.0000  2.420e-09    failed    failed  2.400e-05   25.0000 1
9208    0.9000    3.0000    3.0000    3.0000  2.421e-09  5.535e-09  5.535e-09  2.550e-05   25.0000 1
9209    1.0000    3.0000    3.0000    3.0000  2.421e-09  4.514e-09  4.514e-09  2.600e-05   25.0000 1
9210    1.2000    3.0000    3.0000    3.0000  2.421e-09  3.582e-09  3.582e-09  2.700e-05   25.0000 1
9211    1.5000    3.0000    3.0000    3.0000  2.422e-09  2.979e-09  2.979e-09  2.850e-05   25.0000 1
9212    1.8000    3.0000    3.0000    3.0000  2.422e-09  2.673e-09  2.673e-09  3.000e-05   25.0000 1
9213    2.1000    3.0000    3.0000    3.0000  2.423e-09  2.485e-09  2.485e-09  3.150e-05   25.0000 1
9214    2.4000    3.0000    3.0000    3.0000  2.424e-09  2.359e-09  2.424e-09  3.300e-05   25.0000 1
9215    2.7000    3.0000    3.0000    3.0000  2.424e-09  2.267e-09  2.424e-09  3.450e-05   25.0000 1
9216    3.0000    3.0000    3.0000    3.0000  2.425e-09  2.199e-09  2.425e-09  3.600e-05   25.0000 1
