$DATA1 SOURCE='HSPICE' VERSION='I-2013.12-SP1-1 32-BIT'
$OPTION MEASFORM=1
.TITLE '.temp 110'
index topn sinkn ratio01 ratio10 delay1 delay2 delay area temper alter#
1    0.1000    0.1000    1.0000    1.0000    failed  8.590e-10    failed  6.000e-07   25.0000 1
2    0.2000    0.1000    1.0000    1.0000    failed  5.774e-10    failed  9.000e-07   25.0000 1
3    0.3000    0.1000    1.0000    1.0000    failed  4.620e-10    failed  1.200e-06   25.0000 1
4    0.4000    0.1000    1.0000    1.0000    failed  3.899e-10    failed  1.500e-06   25.0000 1
5    0.5000    0.1000    1.0000    1.0000    failed  3.426e-10    failed  1.800e-06   25.0000 1
6    0.6000    0.1000    1.0000    1.0000    failed  3.078e-10    failed  2.100e-06   25.0000 1
7    0.7000    0.1000    1.0000    1.0000    failed  2.807e-10    failed  2.400e-06   25.0000 1
8    0.8000    0.1000    1.0000    1.0000    failed  2.589e-10    failed  2.700e-06   25.0000 1
9    0.9000    0.1000    1.0000    1.0000    failed  2.411e-10    failed  3.000e-06   25.0000 1
10    1.0000    0.1000    1.0000    1.0000    failed  2.243e-10    failed  3.300e-06   25.0000 1
11    1.1000    0.1000    1.0000    1.0000    failed  2.119e-10    failed  3.600e-06   25.0000 1
12    1.2000    0.1000    1.0000    1.0000    failed  2.015e-10    failed  3.900e-06   25.0000 1
13    1.3000    0.1000    1.0000    1.0000    failed  1.928e-10    failed  4.200e-06   25.0000 1
14    1.4000    0.1000    1.0000    1.0000    failed  1.853e-10    failed  4.500e-06   25.0000 1
15    1.5000    0.1000    1.0000    1.0000    failed  1.787e-10    failed  4.800e-06   25.0000 1
16    1.6000    0.1000    1.0000    1.0000    failed  1.729e-10    failed  5.100e-06   25.0000 1
17    1.7000    0.1000    1.0000    1.0000    failed  1.692e-10    failed  5.400e-06   25.0000 1
18    1.8000    0.1000    1.0000    1.0000    failed  1.624e-10    failed  5.700e-06   25.0000 1
19    1.9000    0.1000    1.0000    1.0000    failed  1.583e-10    failed  6.000e-06   25.0000 1
20    2.0000    0.1000    1.0000    1.0000    failed  1.545e-10    failed  6.300e-06   25.0000 1
21    2.1000    0.1000    1.0000    1.0000    failed  1.526e-10    failed  6.600e-06   25.0000 1
22    2.2000    0.1000    1.0000    1.0000    failed  1.483e-10    failed  6.900e-06   25.0000 1
23    2.3000    0.1000    1.0000    1.0000    failed  1.456e-10    failed  7.200e-06   25.0000 1
24    2.4000    0.1000    1.0000    1.0000    failed  1.446e-10    failed  7.500e-06   25.0000 1
25    2.5000    0.1000    1.0000    1.0000    failed  1.410e-10    failed  7.800e-06   25.0000 1
26    2.6000    0.1000    1.0000    1.0000    failed  1.403e-10    failed  8.100e-06   25.0000 1
27    2.7000    0.1000    1.0000    1.0000    failed  1.384e-10    failed  8.400e-06   25.0000 1
28    2.8000    0.1000    1.0000    1.0000    failed  1.367e-10    failed  8.700e-06   25.0000 1
29    2.9000    0.1000    1.0000    1.0000    failed  1.337e-10    failed  9.000e-06   25.0000 1
30    3.0000    0.1000    1.0000    1.0000    failed  1.323e-10    failed  9.300e-06   25.0000 1
31    0.1000    0.2000    1.0000    1.0000    failed    failed    failed  9.000e-07   25.0000 1
32    0.2000    0.2000    1.0000    1.0000    failed    failed    failed  1.200e-06   25.0000 1
33    0.3000    0.2000    1.0000    1.0000    failed    failed    failed  1.500e-06   25.0000 1
34    0.4000    0.2000    1.0000    1.0000    failed    failed    failed  1.800e-06   25.0000 1
35    0.5000    0.2000    1.0000    1.0000    failed    failed    failed  2.100e-06   25.0000 1
36    0.6000    0.2000    1.0000    1.0000    failed    failed    failed  2.400e-06   25.0000 1
37    0.7000    0.2000    1.0000    1.0000    failed    failed    failed  2.700e-06   25.0000 1
38    0.8000    0.2000    1.0000    1.0000    failed    failed    failed  3.000e-06   25.0000 1
39    0.9000    0.2000    1.0000    1.0000    failed    failed    failed  3.300e-06   25.0000 1
40    1.0000    0.2000    1.0000    1.0000    failed    failed    failed  3.600e-06   25.0000 1
41    1.1000    0.2000    1.0000    1.0000    failed    failed    failed  3.900e-06   25.0000 1
42    1.2000    0.2000    1.0000    1.0000    failed    failed    failed  4.200e-06   25.0000 1
43    1.3000    0.2000    1.0000    1.0000    failed    failed    failed  4.500e-06   25.0000 1
44    1.4000    0.2000    1.0000    1.0000    failed    failed    failed  4.800e-06   25.0000 1
45    1.5000    0.2000    1.0000    1.0000    failed    failed    failed  5.100e-06   25.0000 1
46    1.6000    0.2000    1.0000    1.0000    failed  3.985e-09    failed  5.400e-06   25.0000 1
47    1.7000    0.2000    1.0000    1.0000    failed  2.833e-09    failed  5.700e-06   25.0000 1
48    1.8000    0.2000    1.0000    1.0000    failed  2.295e-09    failed  6.000e-06   25.0000 1
49    1.9000    0.2000    1.0000    1.0000    failed  2.015e-09    failed  6.300e-06   25.0000 1
50    2.0000    0.2000    1.0000    1.0000    failed  1.822e-09    failed  6.600e-06   25.0000 1
51    2.1000    0.2000    1.0000    1.0000    failed  1.700e-09    failed  6.900e-06   25.0000 1
52    2.2000    0.2000    1.0000    1.0000    failed  1.595e-09    failed  7.200e-06   25.0000 1
53    2.3000    0.2000    1.0000    1.0000    failed  1.474e-09    failed  7.500e-06   25.0000 1
54    2.4000    0.2000    1.0000    1.0000    failed  1.393e-09    failed  7.800e-06   25.0000 1
55    2.5000    0.2000    1.0000    1.0000    failed  1.330e-09    failed  8.100e-06   25.0000 1
56    2.6000    0.2000    1.0000    1.0000    failed  1.242e-09    failed  8.400e-06   25.0000 1
57    2.7000    0.2000    1.0000    1.0000    failed  1.197e-09    failed  8.700e-06   25.0000 1
58    2.8000    0.2000    1.0000    1.0000    failed  1.141e-09    failed  9.000e-06   25.0000 1
59    2.9000    0.2000    1.0000    1.0000    failed  1.104e-09    failed  9.300e-06   25.0000 1
60    3.0000    0.2000    1.0000    1.0000    failed  1.059e-09    failed  9.600e-06   25.0000 1
61    0.1000    0.3000    1.0000    1.0000    failed    failed    failed  1.200e-06   25.0000 1
62    0.2000    0.3000    1.0000    1.0000    failed    failed    failed  1.500e-06   25.0000 1
63    0.3000    0.3000    1.0000    1.0000    failed    failed    failed  1.800e-06   25.0000 1
64    0.4000    0.3000    1.0000    1.0000    failed    failed    failed  2.100e-06   25.0000 1
65    0.5000    0.3000    1.0000    1.0000    failed    failed    failed  2.400e-06   25.0000 1
66    0.6000    0.3000    1.0000    1.0000    failed    failed    failed  2.700e-06   25.0000 1
67    0.7000    0.3000    1.0000    1.0000    failed    failed    failed  3.000e-06   25.0000 1
68    0.8000    0.3000    1.0000    1.0000    failed    failed    failed  3.300e-06   25.0000 1
69    0.9000    0.3000    1.0000    1.0000    failed    failed    failed  3.600e-06   25.0000 1
70    1.0000    0.3000    1.0000    1.0000    failed    failed    failed  3.900e-06   25.0000 1
71    1.1000    0.3000    1.0000    1.0000    failed    failed    failed  4.200e-06   25.0000 1
72    1.2000    0.3000    1.0000    1.0000    failed    failed    failed  4.500e-06   25.0000 1
73    1.3000    0.3000    1.0000    1.0000    failed    failed    failed  4.800e-06   25.0000 1
74    1.4000    0.3000    1.0000    1.0000    failed    failed    failed  5.100e-06   25.0000 1
75    1.5000    0.3000    1.0000    1.0000    failed    failed    failed  5.400e-06   25.0000 1
76    1.6000    0.3000    1.0000    1.0000    failed    failed    failed  5.700e-06   25.0000 1
77    1.7000    0.3000    1.0000    1.0000    failed    failed    failed  6.000e-06   25.0000 1
78    1.8000    0.3000    1.0000    1.0000    failed  8.289e-09    failed  6.300e-06   25.0000 1
79    1.9000    0.3000    1.0000    1.0000    failed  6.477e-09    failed  6.600e-06   25.0000 1
80    2.0000    0.3000    1.0000    1.0000    failed  5.527e-09    failed  6.900e-06   25.0000 1
81    2.1000    0.3000    1.0000    1.0000    failed  4.919e-09    failed  7.200e-06   25.0000 1
82    2.2000    0.3000    1.0000    1.0000    failed  4.489e-09    failed  7.500e-06   25.0000 1
83    2.3000    0.3000    1.0000    1.0000    failed  4.167e-09    failed  7.800e-06   25.0000 1
84    2.4000    0.3000    1.0000    1.0000    failed  3.914e-09    failed  8.100e-06   25.0000 1
85    2.5000    0.3000    1.0000    1.0000    failed  3.711e-09    failed  8.400e-06   25.0000 1
86    2.6000    0.3000    1.0000    1.0000    failed  3.544e-09    failed  8.700e-06   25.0000 1
87    2.7000    0.3000    1.0000    1.0000    failed  3.403e-09    failed  9.000e-06   25.0000 1
88    2.8000    0.3000    1.0000    1.0000    failed  3.283e-09    failed  9.300e-06   25.0000 1
89    2.9000    0.3000    1.0000    1.0000    failed  3.179e-09    failed  9.600e-06   25.0000 1
90    3.0000    0.3000    1.0000    1.0000    failed  3.088e-09    failed  9.900e-06   25.0000 1
91    0.1000    0.4000    1.0000    1.0000    failed    failed    failed  1.500e-06   25.0000 1
92    0.2000    0.4000    1.0000    1.0000    failed    failed    failed  1.800e-06   25.0000 1
93    0.3000    0.4000    1.0000    1.0000    failed    failed    failed  2.100e-06   25.0000 1
94    0.4000    0.4000    1.0000    1.0000    failed    failed    failed  2.400e-06   25.0000 1
95    0.5000    0.4000    1.0000    1.0000    failed    failed    failed  2.700e-06   25.0000 1
96    0.6000    0.4000    1.0000    1.0000    failed    failed    failed  3.000e-06   25.0000 1
97    0.7000    0.4000    1.0000    1.0000    failed    failed    failed  3.300e-06   25.0000 1
98    0.8000    0.4000    1.0000    1.0000    failed    failed    failed  3.600e-06   25.0000 1
99    0.9000    0.4000    1.0000    1.0000    failed    failed    failed  3.900e-06   25.0000 1
100    1.0000    0.4000    1.0000    1.0000    failed    failed    failed  4.200e-06   25.0000 1
101    1.1000    0.4000    1.0000    1.0000    failed    failed    failed  4.500e-06   25.0000 1
102    1.2000    0.4000    1.0000    1.0000    failed    failed    failed  4.800e-06   25.0000 1
103    1.3000    0.4000    1.0000    1.0000    failed    failed    failed  5.100e-06   25.0000 1
104    1.4000    0.4000    1.0000    1.0000    failed    failed    failed  5.400e-06   25.0000 1
105    1.5000    0.4000    1.0000    1.0000    failed    failed    failed  5.700e-06   25.0000 1
106    1.6000    0.4000    1.0000    1.0000    failed    failed    failed  6.000e-06   25.0000 1
107    1.7000    0.4000    1.0000    1.0000    failed    failed    failed  6.300e-06   25.0000 1
108    1.8000    0.4000    1.0000    1.0000    failed  8.276e-09    failed  6.600e-06   25.0000 1
109    1.9000    0.4000    1.0000    1.0000    failed  6.482e-09    failed  6.900e-06   25.0000 1
110    2.0000    0.4000    1.0000    1.0000    failed  5.529e-09    failed  7.200e-06   25.0000 1
111    2.1000    0.4000    1.0000    1.0000    failed  4.920e-09    failed  7.500e-06   25.0000 1
112    2.2000    0.4000    1.0000    1.0000    failed  4.490e-09    failed  7.800e-06   25.0000 1
113    2.3000    0.4000    1.0000    1.0000    failed  4.167e-09    failed  8.100e-06   25.0000 1
114    2.4000    0.4000    1.0000    1.0000    failed  3.915e-09    failed  8.400e-06   25.0000 1
115    2.5000    0.4000    1.0000    1.0000    failed  3.712e-09    failed  8.700e-06   25.0000 1
116    2.6000    0.4000    1.0000    1.0000    failed  3.545e-09    failed  9.000e-06   25.0000 1
117    2.7000    0.4000    1.0000    1.0000    failed  3.404e-09    failed  9.300e-06   25.0000 1
118    2.8000    0.4000    1.0000    1.0000    failed  3.284e-09    failed  9.600e-06   25.0000 1
119    2.9000    0.4000    1.0000    1.0000    failed  3.180e-09    failed  9.900e-06   25.0000 1
120    3.0000    0.4000    1.0000    1.0000    failed  3.089e-09    failed  1.020e-05   25.0000 1
121    0.1000    0.5000    1.0000    1.0000    failed    failed    failed  1.800e-06   25.0000 1
122    0.2000    0.5000    1.0000    1.0000    failed    failed    failed  2.100e-06   25.0000 1
123    0.3000    0.5000    1.0000    1.0000    failed    failed    failed  2.400e-06   25.0000 1
124    0.4000    0.5000    1.0000    1.0000    failed    failed    failed  2.700e-06   25.0000 1
125    0.5000    0.5000    1.0000    1.0000    failed    failed    failed  3.000e-06   25.0000 1
126    0.6000    0.5000    1.0000    1.0000    failed    failed    failed  3.300e-06   25.0000 1
127    0.7000    0.5000    1.0000    1.0000    failed    failed    failed  3.600e-06   25.0000 1
128    0.8000    0.5000    1.0000    1.0000    failed    failed    failed  3.900e-06   25.0000 1
129    0.9000    0.5000    1.0000    1.0000    failed    failed    failed  4.200e-06   25.0000 1
130    1.0000    0.5000    1.0000    1.0000    failed    failed    failed  4.500e-06   25.0000 1
131    1.1000    0.5000    1.0000    1.0000    failed    failed    failed  4.800e-06   25.0000 1
132    1.2000    0.5000    1.0000    1.0000    failed    failed    failed  5.100e-06   25.0000 1
133    1.3000    0.5000    1.0000    1.0000    failed    failed    failed  5.400e-06   25.0000 1
134    1.4000    0.5000    1.0000    1.0000    failed    failed    failed  5.700e-06   25.0000 1
135    1.5000    0.5000    1.0000    1.0000    failed    failed    failed  6.000e-06   25.0000 1
136    1.6000    0.5000    1.0000    1.0000    failed    failed    failed  6.300e-06   25.0000 1
137    1.7000    0.5000    1.0000    1.0000    failed    failed    failed  6.600e-06   25.0000 1
138    1.8000    0.5000    1.0000    1.0000    failed  8.283e-09    failed  6.900e-06   25.0000 1
139    1.9000    0.5000    1.0000    1.0000    failed  6.485e-09    failed  7.200e-06   25.0000 1
140    2.0000    0.5000    1.0000    1.0000    failed  5.530e-09    failed  7.500e-06   25.0000 1
141    2.1000    0.5000    1.0000    1.0000    failed  4.921e-09    failed  7.800e-06   25.0000 1
142    2.2000    0.5000    1.0000    1.0000    failed  4.491e-09    failed  8.100e-06   25.0000 1
143    2.3000    0.5000    1.0000    1.0000    failed  4.167e-09    failed  8.400e-06   25.0000 1
144    2.4000    0.5000    1.0000    1.0000    failed  3.916e-09    failed  8.700e-06   25.0000 1
145    2.5000    0.5000    1.0000    1.0000    failed  3.712e-09    failed  9.000e-06   25.0000 1
146    2.6000    0.5000    1.0000    1.0000    failed  3.545e-09    failed  9.300e-06   25.0000 1
147    2.7000    0.5000    1.0000    1.0000    failed  3.405e-09    failed  9.600e-06   25.0000 1
148    2.8000    0.5000    1.0000    1.0000    failed  3.284e-09    failed  9.900e-06   25.0000 1
149    2.9000    0.5000    1.0000    1.0000    failed  3.180e-09    failed  1.020e-05   25.0000 1
150    3.0000    0.5000    1.0000    1.0000    failed  3.090e-09    failed  1.050e-05   25.0000 1
151    0.1000    0.6000    1.0000    1.0000    failed    failed    failed  2.100e-06   25.0000 1
152    0.2000    0.6000    1.0000    1.0000    failed    failed    failed  2.400e-06   25.0000 1
153    0.3000    0.6000    1.0000    1.0000    failed    failed    failed  2.700e-06   25.0000 1
154    0.4000    0.6000    1.0000    1.0000    failed    failed    failed  3.000e-06   25.0000 1
155    0.5000    0.6000    1.0000    1.0000    failed    failed    failed  3.300e-06   25.0000 1
156    0.6000    0.6000    1.0000    1.0000    failed    failed    failed  3.600e-06   25.0000 1
157    0.7000    0.6000    1.0000    1.0000    failed    failed    failed  3.900e-06   25.0000 1
158    0.8000    0.6000    1.0000    1.0000    failed    failed    failed  4.200e-06   25.0000 1
159    0.9000    0.6000    1.0000    1.0000    failed    failed    failed  4.500e-06   25.0000 1
160    1.0000    0.6000    1.0000    1.0000    failed    failed    failed  4.800e-06   25.0000 1
161    1.1000    0.6000    1.0000    1.0000    failed    failed    failed  5.100e-06   25.0000 1
162    1.2000    0.6000    1.0000    1.0000    failed    failed    failed  5.400e-06   25.0000 1
163    1.3000    0.6000    1.0000    1.0000    failed    failed    failed  5.700e-06   25.0000 1
164    1.4000    0.6000    1.0000    1.0000    failed    failed    failed  6.000e-06   25.0000 1
165    1.5000    0.6000    1.0000    1.0000    failed    failed    failed  6.300e-06   25.0000 1
166    1.6000    0.6000    1.0000    1.0000    failed    failed    failed  6.600e-06   25.0000 1
167    1.7000    0.6000    1.0000    1.0000    failed    failed    failed  6.900e-06   25.0000 1
168    1.8000    0.6000    1.0000    1.0000    failed  8.285e-09    failed  7.200e-06   25.0000 1
169    1.9000    0.6000    1.0000    1.0000    failed  6.491e-09    failed  7.500e-06   25.0000 1
170    2.0000    0.6000    1.0000    1.0000    failed  5.532e-09    failed  7.800e-06   25.0000 1
171    2.1000    0.6000    1.0000    1.0000    failed  4.920e-09    failed  8.100e-06   25.0000 1
172    2.2000    0.6000    1.0000    1.0000    failed  4.491e-09    failed  8.400e-06   25.0000 1
173    2.3000    0.6000    1.0000    1.0000    failed  4.168e-09    failed  8.700e-06   25.0000 1
174    2.4000    0.6000    1.0000    1.0000    failed  3.917e-09    failed  9.000e-06   25.0000 1
175    2.5000    0.6000    1.0000    1.0000    failed  3.713e-09    failed  9.300e-06   25.0000 1
176    2.6000    0.6000    1.0000    1.0000    failed  3.546e-09    failed  9.600e-06   25.0000 1
177    2.7000    0.6000    1.0000    1.0000    failed  3.405e-09    failed  9.900e-06   25.0000 1
178    2.8000    0.6000    1.0000    1.0000    failed  3.286e-09    failed  1.020e-05   25.0000 1
179    2.9000    0.6000    1.0000    1.0000    failed  3.179e-09    failed  1.050e-05   25.0000 1
180    3.0000    0.6000    1.0000    1.0000    failed  3.090e-09    failed  1.080e-05   25.0000 1
181    0.1000    0.7000    1.0000    1.0000    failed    failed    failed  2.400e-06   25.0000 1
182    0.2000    0.7000    1.0000    1.0000    failed    failed    failed  2.700e-06   25.0000 1
183    0.3000    0.7000    1.0000    1.0000    failed    failed    failed  3.000e-06   25.0000 1
184    0.4000    0.7000    1.0000    1.0000    failed    failed    failed  3.300e-06   25.0000 1
185    0.5000    0.7000    1.0000    1.0000    failed    failed    failed  3.600e-06   25.0000 1
186    0.6000    0.7000    1.0000    1.0000    failed    failed    failed  3.900e-06   25.0000 1
187    0.7000    0.7000    1.0000    1.0000    failed    failed    failed  4.200e-06   25.0000 1
188    0.8000    0.7000    1.0000    1.0000    failed    failed    failed  4.500e-06   25.0000 1
189    0.9000    0.7000    1.0000    1.0000    failed    failed    failed  4.800e-06   25.0000 1
190    1.0000    0.7000    1.0000    1.0000    failed    failed    failed  5.100e-06   25.0000 1
191    1.1000    0.7000    1.0000    1.0000    failed    failed    failed  5.400e-06   25.0000 1
192    1.2000    0.7000    1.0000    1.0000    failed    failed    failed  5.700e-06   25.0000 1
193    1.3000    0.7000    1.0000    1.0000    failed    failed    failed  6.000e-06   25.0000 1
194    1.4000    0.7000    1.0000    1.0000    failed    failed    failed  6.300e-06   25.0000 1
195    1.5000    0.7000    1.0000    1.0000    failed    failed    failed  6.600e-06   25.0000 1
196    1.6000    0.7000    1.0000    1.0000    failed    failed    failed  6.900e-06   25.0000 1
197    1.7000    0.7000    1.0000    1.0000    failed    failed    failed  7.200e-06   25.0000 1
198    1.8000    0.7000    1.0000    1.0000    failed  8.284e-09    failed  7.500e-06   25.0000 1
199    1.9000    0.7000    1.0000    1.0000    failed  6.488e-09    failed  7.800e-06   25.0000 1
200    2.0000    0.7000    1.0000    1.0000    failed  5.533e-09    failed  8.100e-06   25.0000 1
201    2.1000    0.7000    1.0000    1.0000    failed  4.922e-09    failed  8.400e-06   25.0000 1
202    2.2000    0.7000    1.0000    1.0000    failed  4.493e-09    failed  8.700e-06   25.0000 1
203    2.3000    0.7000    1.0000    1.0000    failed  4.168e-09    failed  9.000e-06   25.0000 1
204    2.4000    0.7000    1.0000    1.0000    failed  3.917e-09    failed  9.300e-06   25.0000 1
205    2.5000    0.7000    1.0000    1.0000    failed  3.714e-09    failed  9.600e-06   25.0000 1
206    2.6000    0.7000    1.0000    1.0000    failed  3.545e-09    failed  9.900e-06   25.0000 1
207    2.7000    0.7000    1.0000    1.0000    failed  3.406e-09    failed  1.020e-05   25.0000 1
208    2.8000    0.7000    1.0000    1.0000    failed  3.286e-09    failed  1.050e-05   25.0000 1
209    2.9000    0.7000    1.0000    1.0000    failed  3.181e-09    failed  1.080e-05   25.0000 1
210    3.0000    0.7000    1.0000    1.0000    failed  3.090e-09    failed  1.110e-05   25.0000 1
211    0.1000    0.8000    1.0000    1.0000    failed    failed    failed  2.700e-06   25.0000 1
212    0.2000    0.8000    1.0000    1.0000    failed    failed    failed  3.000e-06   25.0000 1
213    0.3000    0.8000    1.0000    1.0000    failed    failed    failed  3.300e-06   25.0000 1
214    0.4000    0.8000    1.0000    1.0000    failed    failed    failed  3.600e-06   25.0000 1
215    0.5000    0.8000    1.0000    1.0000    failed    failed    failed  3.900e-06   25.0000 1
216    0.6000    0.8000    1.0000    1.0000    failed    failed    failed  4.200e-06   25.0000 1
217    0.7000    0.8000    1.0000    1.0000    failed    failed    failed  4.500e-06   25.0000 1
218    0.8000    0.8000    1.0000    1.0000    failed    failed    failed  4.800e-06   25.0000 1
219    0.9000    0.8000    1.0000    1.0000    failed    failed    failed  5.100e-06   25.0000 1
220    1.0000    0.8000    1.0000    1.0000    failed    failed    failed  5.400e-06   25.0000 1
221    1.1000    0.8000    1.0000    1.0000    failed    failed    failed  5.700e-06   25.0000 1
222    1.2000    0.8000    1.0000    1.0000    failed    failed    failed  6.000e-06   25.0000 1
223    1.3000    0.8000    1.0000    1.0000    failed    failed    failed  6.300e-06   25.0000 1
224    1.4000    0.8000    1.0000    1.0000    failed    failed    failed  6.600e-06   25.0000 1
225    1.5000    0.8000    1.0000    1.0000    failed    failed    failed  6.900e-06   25.0000 1
226    1.6000    0.8000    1.0000    1.0000    failed    failed    failed  7.200e-06   25.0000 1
227    1.7000    0.8000    1.0000    1.0000    failed    failed    failed  7.500e-06   25.0000 1
228    1.8000    0.8000    1.0000    1.0000    failed  8.291e-09    failed  7.800e-06   25.0000 1
229    1.9000    0.8000    1.0000    1.0000    failed  6.490e-09    failed  8.100e-06   25.0000 1
230    2.0000    0.8000    1.0000    1.0000    failed  5.534e-09    failed  8.400e-06   25.0000 1
231    2.1000    0.8000    1.0000    1.0000    failed  4.924e-09    failed  8.700e-06   25.0000 1
232    2.2000    0.8000    1.0000    1.0000    failed  4.492e-09    failed  9.000e-06   25.0000 1
233    2.3000    0.8000    1.0000    1.0000    failed  4.169e-09    failed  9.300e-06   25.0000 1
234    2.4000    0.8000    1.0000    1.0000    failed  3.916e-09    failed  9.600e-06   25.0000 1
235    2.5000    0.8000    1.0000    1.0000    failed  3.713e-09    failed  9.900e-06   25.0000 1
236    2.6000    0.8000    1.0000    1.0000    failed  3.547e-09    failed  1.020e-05   25.0000 1
237    2.7000    0.8000    1.0000    1.0000    failed  3.406e-09    failed  1.050e-05   25.0000 1
238    2.8000    0.8000    1.0000    1.0000    failed  3.285e-09    failed  1.080e-05   25.0000 1
239    2.9000    0.8000    1.0000    1.0000    failed  3.181e-09    failed  1.110e-05   25.0000 1
240    3.0000    0.8000    1.0000    1.0000    failed  3.091e-09    failed  1.140e-05   25.0000 1
241    0.1000    0.9000    1.0000    1.0000    failed    failed    failed  3.000e-06   25.0000 1
242    0.2000    0.9000    1.0000    1.0000    failed    failed    failed  3.300e-06   25.0000 1
243    0.3000    0.9000    1.0000    1.0000    failed    failed    failed  3.600e-06   25.0000 1
244    0.4000    0.9000    1.0000    1.0000    failed    failed    failed  3.900e-06   25.0000 1
245    0.5000    0.9000    1.0000    1.0000    failed    failed    failed  4.200e-06   25.0000 1
246    0.6000    0.9000    1.0000    1.0000    failed    failed    failed  4.500e-06   25.0000 1
247    0.7000    0.9000    1.0000    1.0000    failed    failed    failed  4.800e-06   25.0000 1
248    0.8000    0.9000    1.0000    1.0000    failed    failed    failed  5.100e-06   25.0000 1
249    0.9000    0.9000    1.0000    1.0000    failed    failed    failed  5.400e-06   25.0000 1
250    1.0000    0.9000    1.0000    1.0000    failed    failed    failed  5.700e-06   25.0000 1
251    1.1000    0.9000    1.0000    1.0000    failed    failed    failed  6.000e-06   25.0000 1
252    1.2000    0.9000    1.0000    1.0000    failed    failed    failed  6.300e-06   25.0000 1
253    1.3000    0.9000    1.0000    1.0000    failed    failed    failed  6.600e-06   25.0000 1
254    1.4000    0.9000    1.0000    1.0000    failed    failed    failed  6.900e-06   25.0000 1
255    1.5000    0.9000    1.0000    1.0000    failed    failed    failed  7.200e-06   25.0000 1
256    1.6000    0.9000    1.0000    1.0000    failed    failed    failed  7.500e-06   25.0000 1
257    1.7000    0.9000    1.0000    1.0000    failed    failed    failed  7.800e-06   25.0000 1
258    1.8000    0.9000    1.0000    1.0000    failed  8.297e-09    failed  8.100e-06   25.0000 1
259    1.9000    0.9000    1.0000    1.0000    failed  6.493e-09    failed  8.400e-06   25.0000 1
260    2.0000    0.9000    1.0000    1.0000    failed  5.535e-09    failed  8.700e-06   25.0000 1
261    2.1000    0.9000    1.0000    1.0000    failed  4.925e-09    failed  9.000e-06   25.0000 1
262    2.2000    0.9000    1.0000    1.0000    failed  4.494e-09    failed  9.300e-06   25.0000 1
263    2.3000    0.9000    1.0000    1.0000    failed  4.170e-09    failed  9.600e-06   25.0000 1
264    2.4000    0.9000    1.0000    1.0000    failed  3.919e-09    failed  9.900e-06   25.0000 1
265    2.5000    0.9000    1.0000    1.0000    failed  3.714e-09    failed  1.020e-05   25.0000 1
266    2.6000    0.9000    1.0000    1.0000    failed  3.546e-09    failed  1.050e-05   25.0000 1
267    2.7000    0.9000    1.0000    1.0000    failed  3.406e-09    failed  1.080e-05   25.0000 1
268    2.8000    0.9000    1.0000    1.0000    failed  3.286e-09    failed  1.110e-05   25.0000 1
269    2.9000    0.9000    1.0000    1.0000    failed  3.181e-09    failed  1.140e-05   25.0000 1
270    3.0000    0.9000    1.0000    1.0000    failed  3.090e-09    failed  1.170e-05   25.0000 1
271    0.1000    1.0000    1.0000    1.0000    failed    failed    failed  3.300e-06   25.0000 1
272    0.2000    1.0000    1.0000    1.0000    failed    failed    failed  3.600e-06   25.0000 1
273    0.3000    1.0000    1.0000    1.0000    failed    failed    failed  3.900e-06   25.0000 1
274    0.4000    1.0000    1.0000    1.0000    failed    failed    failed  4.200e-06   25.0000 1
275    0.5000    1.0000    1.0000    1.0000    failed    failed    failed  4.500e-06   25.0000 1
276    0.6000    1.0000    1.0000    1.0000    failed    failed    failed  4.800e-06   25.0000 1
277    0.7000    1.0000    1.0000    1.0000    failed    failed    failed  5.100e-06   25.0000 1
278    0.8000    1.0000    1.0000    1.0000    failed    failed    failed  5.400e-06   25.0000 1
279    0.9000    1.0000    1.0000    1.0000    failed    failed    failed  5.700e-06   25.0000 1
280    1.0000    1.0000    1.0000    1.0000    failed    failed    failed  6.000e-06   25.0000 1
281    1.1000    1.0000    1.0000    1.0000    failed    failed    failed  6.300e-06   25.0000 1
282    1.2000    1.0000    1.0000    1.0000    failed    failed    failed  6.600e-06   25.0000 1
283    1.3000    1.0000    1.0000    1.0000    failed    failed    failed  6.900e-06   25.0000 1
284    1.4000    1.0000    1.0000    1.0000    failed    failed    failed  7.200e-06   25.0000 1
285    1.5000    1.0000    1.0000    1.0000    failed    failed    failed  7.500e-06   25.0000 1
286    1.6000    1.0000    1.0000    1.0000    failed    failed    failed  7.800e-06   25.0000 1
287    1.7000    1.0000    1.0000    1.0000    failed    failed    failed  8.100e-06   25.0000 1
288    1.8000    1.0000    1.0000    1.0000    failed  8.297e-09    failed  8.400e-06   25.0000 1
289    1.9000    1.0000    1.0000    1.0000    failed  6.497e-09    failed  8.700e-06   25.0000 1
290    2.0000    1.0000    1.0000    1.0000    failed  5.534e-09    failed  9.000e-06   25.0000 1
291    2.1000    1.0000    1.0000    1.0000    failed  4.925e-09    failed  9.300e-06   25.0000 1
292    2.2000    1.0000    1.0000    1.0000    failed  4.493e-09    failed  9.600e-06   25.0000 1
293    2.3000    1.0000    1.0000    1.0000    failed  4.170e-09    failed  9.900e-06   25.0000 1
294    2.4000    1.0000    1.0000    1.0000    failed  3.918e-09    failed  1.020e-05   25.0000 1
295    2.5000    1.0000    1.0000    1.0000    failed  3.715e-09    failed  1.050e-05   25.0000 1
296    2.6000    1.0000    1.0000    1.0000    failed  3.547e-09    failed  1.080e-05   25.0000 1
297    2.7000    1.0000    1.0000    1.0000    failed  3.406e-09    failed  1.110e-05   25.0000 1
298    2.8000    1.0000    1.0000    1.0000    failed  3.286e-09    failed  1.140e-05   25.0000 1
299    2.9000    1.0000    1.0000    1.0000    failed  3.181e-09    failed  1.170e-05   25.0000 1
300    3.0000    1.0000    1.0000    1.0000    failed  3.092e-09    failed  1.200e-05   25.0000 1
301    0.1000    1.1000    1.0000    1.0000    failed    failed    failed  3.600e-06   25.0000 1
302    0.2000    1.1000    1.0000    1.0000    failed    failed    failed  3.900e-06   25.0000 1
303    0.3000    1.1000    1.0000    1.0000    failed    failed    failed  4.200e-06   25.0000 1
304    0.4000    1.1000    1.0000    1.0000    failed    failed    failed  4.500e-06   25.0000 1
305    0.5000    1.1000    1.0000    1.0000    failed    failed    failed  4.800e-06   25.0000 1
306    0.6000    1.1000    1.0000    1.0000    failed    failed    failed  5.100e-06   25.0000 1
307    0.7000    1.1000    1.0000    1.0000    failed    failed    failed  5.400e-06   25.0000 1
308    0.8000    1.1000    1.0000    1.0000    failed    failed    failed  5.700e-06   25.0000 1
309    0.9000    1.1000    1.0000    1.0000    failed    failed    failed  6.000e-06   25.0000 1
310    1.0000    1.1000    1.0000    1.0000    failed    failed    failed  6.300e-06   25.0000 1
311    1.1000    1.1000    1.0000    1.0000    failed    failed    failed  6.600e-06   25.0000 1
312    1.2000    1.1000    1.0000    1.0000    failed    failed    failed  6.900e-06   25.0000 1
313    1.3000    1.1000    1.0000    1.0000    failed    failed    failed  7.200e-06   25.0000 1
314    1.4000    1.1000    1.0000    1.0000    failed    failed    failed  7.500e-06   25.0000 1
315    1.5000    1.1000    1.0000    1.0000    failed    failed    failed  7.800e-06   25.0000 1
316    1.6000    1.1000    1.0000    1.0000    failed    failed    failed  8.100e-06   25.0000 1
317    1.7000    1.1000    1.0000    1.0000    failed    failed    failed  8.400e-06   25.0000 1
318    1.8000    1.1000    1.0000    1.0000    failed  8.298e-09    failed  8.700e-06   25.0000 1
319    1.9000    1.1000    1.0000    1.0000    failed  6.497e-09    failed  9.000e-06   25.0000 1
320    2.0000    1.1000    1.0000    1.0000    failed  5.538e-09    failed  9.300e-06   25.0000 1
321    2.1000    1.1000    1.0000    1.0000    failed  4.924e-09    failed  9.600e-06   25.0000 1
322    2.2000    1.1000    1.0000    1.0000    failed  4.493e-09    failed  9.900e-06   25.0000 1
323    2.3000    1.1000    1.0000    1.0000    failed  4.170e-09    failed  1.020e-05   25.0000 1
324    2.4000    1.1000    1.0000    1.0000    failed  3.918e-09    failed  1.050e-05   25.0000 1
325    2.5000    1.1000    1.0000    1.0000    failed  3.716e-09    failed  1.080e-05   25.0000 1
326    2.6000    1.1000    1.0000    1.0000    failed  3.547e-09    failed  1.110e-05   25.0000 1
327    2.7000    1.1000    1.0000    1.0000    failed  3.406e-09    failed  1.140e-05   25.0000 1
328    2.8000    1.1000    1.0000    1.0000    failed  3.286e-09    failed  1.170e-05   25.0000 1
329    2.9000    1.1000    1.0000    1.0000    failed  3.181e-09    failed  1.200e-05   25.0000 1
330    3.0000    1.1000    1.0000    1.0000    failed  3.090e-09    failed  1.230e-05   25.0000 1
331    0.1000    1.2000    1.0000    1.0000    failed    failed    failed  3.900e-06   25.0000 1
332    0.2000    1.2000    1.0000    1.0000    failed    failed    failed  4.200e-06   25.0000 1
333    0.3000    1.2000    1.0000    1.0000    failed    failed    failed  4.500e-06   25.0000 1
334    0.4000    1.2000    1.0000    1.0000    failed    failed    failed  4.800e-06   25.0000 1
335    0.5000    1.2000    1.0000    1.0000    failed    failed    failed  5.100e-06   25.0000 1
336    0.6000    1.2000    1.0000    1.0000    failed    failed    failed  5.400e-06   25.0000 1
337    0.7000    1.2000    1.0000    1.0000    failed    failed    failed  5.700e-06   25.0000 1
338    0.8000    1.2000    1.0000    1.0000    failed    failed    failed  6.000e-06   25.0000 1
339    0.9000    1.2000    1.0000    1.0000    failed    failed    failed  6.300e-06   25.0000 1
340    1.0000    1.2000    1.0000    1.0000    failed    failed    failed  6.600e-06   25.0000 1
341    1.1000    1.2000    1.0000    1.0000    failed    failed    failed  6.900e-06   25.0000 1
342    1.2000    1.2000    1.0000    1.0000    failed    failed    failed  7.200e-06   25.0000 1
343    1.3000    1.2000    1.0000    1.0000    failed    failed    failed  7.500e-06   25.0000 1
344    1.4000    1.2000    1.0000    1.0000    failed    failed    failed  7.800e-06   25.0000 1
345    1.5000    1.2000    1.0000    1.0000    failed    failed    failed  8.100e-06   25.0000 1
346    1.6000    1.2000    1.0000    1.0000    failed    failed    failed  8.400e-06   25.0000 1
347    1.7000    1.2000    1.0000    1.0000    failed    failed    failed  8.700e-06   25.0000 1
348    1.8000    1.2000    1.0000    1.0000    failed  8.302e-09    failed  9.000e-06   25.0000 1
349    1.9000    1.2000    1.0000    1.0000    failed  6.492e-09    failed  9.300e-06   25.0000 1
350    2.0000    1.2000    1.0000    1.0000    failed  5.538e-09    failed  9.600e-06   25.0000 1
351    2.1000    1.2000    1.0000    1.0000    failed  4.925e-09    failed  9.900e-06   25.0000 1
352    2.2000    1.2000    1.0000    1.0000    failed  4.493e-09    failed  1.020e-05   25.0000 1
353    2.3000    1.2000    1.0000    1.0000    failed  4.171e-09    failed  1.050e-05   25.0000 1
354    2.4000    1.2000    1.0000    1.0000    failed  3.919e-09    failed  1.080e-05   25.0000 1
355    2.5000    1.2000    1.0000    1.0000    failed  3.715e-09    failed  1.110e-05   25.0000 1
356    2.6000    1.2000    1.0000    1.0000    failed  3.547e-09    failed  1.140e-05   25.0000 1
357    2.7000    1.2000    1.0000    1.0000    failed  3.405e-09    failed  1.170e-05   25.0000 1
358    2.8000    1.2000    1.0000    1.0000    failed  3.286e-09    failed  1.200e-05   25.0000 1
359    2.9000    1.2000    1.0000    1.0000    failed  3.181e-09    failed  1.230e-05   25.0000 1
360    3.0000    1.2000    1.0000    1.0000    failed  3.091e-09    failed  1.260e-05   25.0000 1
361    0.1000    1.3000    1.0000    1.0000    failed    failed    failed  4.200e-06   25.0000 1
362    0.2000    1.3000    1.0000    1.0000    failed    failed    failed  4.500e-06   25.0000 1
363    0.3000    1.3000    1.0000    1.0000    failed    failed    failed  4.800e-06   25.0000 1
364    0.4000    1.3000    1.0000    1.0000    failed    failed    failed  5.100e-06   25.0000 1
365    0.5000    1.3000    1.0000    1.0000    failed    failed    failed  5.400e-06   25.0000 1
366    0.6000    1.3000    1.0000    1.0000    failed    failed    failed  5.700e-06   25.0000 1
367    0.7000    1.3000    1.0000    1.0000    failed    failed    failed  6.000e-06   25.0000 1
368    0.8000    1.3000    1.0000    1.0000    failed    failed    failed  6.300e-06   25.0000 1
369    0.9000    1.3000    1.0000    1.0000    failed    failed    failed  6.600e-06   25.0000 1
370    1.0000    1.3000    1.0000    1.0000    failed    failed    failed  6.900e-06   25.0000 1
371    1.1000    1.3000    1.0000    1.0000    failed    failed    failed  7.200e-06   25.0000 1
372    1.2000    1.3000    1.0000    1.0000    failed    failed    failed  7.500e-06   25.0000 1
373    1.3000    1.3000    1.0000    1.0000    failed    failed    failed  7.800e-06   25.0000 1
374    1.4000    1.3000    1.0000    1.0000    failed    failed    failed  8.100e-06   25.0000 1
375    1.5000    1.3000    1.0000    1.0000    failed    failed    failed  8.400e-06   25.0000 1
376    1.6000    1.3000    1.0000    1.0000    failed    failed    failed  8.700e-06   25.0000 1
377    1.7000    1.3000    1.0000    1.0000    failed    failed    failed  9.000e-06   25.0000 1
378    1.8000    1.3000    1.0000    1.0000    failed  8.302e-09    failed  9.300e-06   25.0000 1
379    1.9000    1.3000    1.0000    1.0000    failed  6.493e-09    failed  9.600e-06   25.0000 1
380    2.0000    1.3000    1.0000    1.0000    failed  5.538e-09    failed  9.900e-06   25.0000 1
381    2.1000    1.3000    1.0000    1.0000    failed  4.926e-09    failed  1.020e-05   25.0000 1
382    2.2000    1.3000    1.0000    1.0000    failed  4.491e-09    failed  1.050e-05   25.0000 1
383    2.3000    1.3000    1.0000    1.0000    failed  4.170e-09    failed  1.080e-05   25.0000 1
384    2.4000    1.3000    1.0000    1.0000    failed  3.918e-09    failed  1.110e-05   25.0000 1
385    2.5000    1.3000    1.0000    1.0000    failed  3.714e-09    failed  1.140e-05   25.0000 1
386    2.6000    1.3000    1.0000    1.0000    failed  3.548e-09    failed  1.170e-05   25.0000 1
387    2.7000    1.3000    1.0000    1.0000    failed  3.406e-09    failed  1.200e-05   25.0000 1
388    2.8000    1.3000    1.0000    1.0000    failed  3.286e-09    failed  1.230e-05   25.0000 1
389    2.9000    1.3000    1.0000    1.0000    failed  3.182e-09    failed  1.260e-05   25.0000 1
390    3.0000    1.3000    1.0000    1.0000    failed  3.090e-09    failed  1.290e-05   25.0000 1
391    0.1000    1.4000    1.0000    1.0000  8.119e-09    failed    failed  4.500e-06   25.0000 1
392    0.2000    1.4000    1.0000    1.0000  8.137e-09    failed    failed  4.800e-06   25.0000 1
393    0.3000    1.4000    1.0000    1.0000  8.145e-09    failed    failed  5.100e-06   25.0000 1
394    0.4000    1.4000    1.0000    1.0000  8.138e-09    failed    failed  5.400e-06   25.0000 1
395    0.5000    1.4000    1.0000    1.0000  8.144e-09    failed    failed  5.700e-06   25.0000 1
396    0.6000    1.4000    1.0000    1.0000  8.153e-09    failed    failed  6.000e-06   25.0000 1
397    0.7000    1.4000    1.0000    1.0000  8.149e-09    failed    failed  6.300e-06   25.0000 1
398    0.8000    1.4000    1.0000    1.0000  8.178e-09    failed    failed  6.600e-06   25.0000 1
399    0.9000    1.4000    1.0000    1.0000  8.167e-09    failed    failed  6.900e-06   25.0000 1
400    1.0000    1.4000    1.0000    1.0000  8.171e-09    failed    failed  7.200e-06   25.0000 1
401    1.1000    1.4000    1.0000    1.0000  8.179e-09    failed    failed  7.500e-06   25.0000 1
402    1.2000    1.4000    1.0000    1.0000  8.191e-09    failed    failed  7.800e-06   25.0000 1
403    1.3000    1.4000    1.0000    1.0000  8.201e-09    failed    failed  8.100e-06   25.0000 1
404    1.4000    1.4000    1.0000    1.0000  8.208e-09    failed    failed  8.400e-06   25.0000 1
405    1.5000    1.4000    1.0000    1.0000  8.204e-09    failed    failed  8.700e-06   25.0000 1
406    1.6000    1.4000    1.0000    1.0000  8.208e-09    failed    failed  9.000e-06   25.0000 1
407    1.7000    1.4000    1.0000    1.0000  8.222e-09    failed    failed  9.300e-06   25.0000 1
408    1.8000    1.4000    1.0000    1.0000  8.218e-09  8.143e-09  8.218e-09  9.600e-06   25.0000 1
409    1.9000    1.4000    1.0000    1.0000  8.233e-09  6.355e-09  8.233e-09  9.900e-06   25.0000 1
410    2.0000    1.4000    1.0000    1.0000  8.237e-09  5.414e-09  8.237e-09  1.020e-05   25.0000 1
411    2.1000    1.4000    1.0000    1.0000  8.255e-09  4.816e-09  8.255e-09  1.050e-05   25.0000 1
412    2.2000    1.4000    1.0000    1.0000  8.248e-09  4.398e-09  8.248e-09  1.080e-05   25.0000 1
413    2.3000    1.4000    1.0000    1.0000  8.261e-09  4.084e-09  8.261e-09  1.110e-05   25.0000 1
414    2.4000    1.4000    1.0000    1.0000  8.272e-09  3.841e-09  8.272e-09  1.140e-05   25.0000 1
415    2.5000    1.4000    1.0000    1.0000  8.262e-09  3.645e-09  8.262e-09  1.170e-05   25.0000 1
416    2.6000    1.4000    1.0000    1.0000  8.264e-09  3.483e-09  8.264e-09  1.200e-05   25.0000 1
417    2.7000    1.4000    1.0000    1.0000  8.275e-09  3.348e-09  8.275e-09  1.230e-05   25.0000 1
418    2.8000    1.4000    1.0000    1.0000  8.284e-09  3.233e-09  8.284e-09  1.260e-05   25.0000 1
419    2.9000    1.4000    1.0000    1.0000  8.290e-09  3.133e-09  8.290e-09  1.290e-05   25.0000 1
420    3.0000    1.4000    1.0000    1.0000  8.297e-09  3.047e-09  8.297e-09  1.320e-05   25.0000 1
421    0.1000    1.5000    1.0000    1.0000  6.268e-09    failed    failed  4.800e-06   25.0000 1
422    0.2000    1.5000    1.0000    1.0000  6.270e-09    failed    failed  5.100e-06   25.0000 1
423    0.3000    1.5000    1.0000    1.0000  6.275e-09    failed    failed  5.400e-06   25.0000 1
424    0.4000    1.5000    1.0000    1.0000  6.277e-09    failed    failed  5.700e-06   25.0000 1
425    0.5000    1.5000    1.0000    1.0000  6.280e-09    failed    failed  6.000e-06   25.0000 1
426    0.6000    1.5000    1.0000    1.0000  6.283e-09    failed    failed  6.300e-06   25.0000 1
427    0.7000    1.5000    1.0000    1.0000  6.288e-09    failed    failed  6.600e-06   25.0000 1
428    0.8000    1.5000    1.0000    1.0000  6.288e-09    failed    failed  6.900e-06   25.0000 1
429    0.9000    1.5000    1.0000    1.0000  6.292e-09    failed    failed  7.200e-06   25.0000 1
430    1.0000    1.5000    1.0000    1.0000  6.294e-09    failed    failed  7.500e-06   25.0000 1
431    1.1000    1.5000    1.0000    1.0000  6.298e-09    failed    failed  7.800e-06   25.0000 1
432    1.2000    1.5000    1.0000    1.0000  6.300e-09    failed    failed  8.100e-06   25.0000 1
433    1.3000    1.5000    1.0000    1.0000  6.303e-09    failed    failed  8.400e-06   25.0000 1
434    1.4000    1.5000    1.0000    1.0000  6.305e-09    failed    failed  8.700e-06   25.0000 1
435    1.5000    1.5000    1.0000    1.0000  6.308e-09    failed    failed  9.000e-06   25.0000 1
436    1.6000    1.5000    1.0000    1.0000  6.311e-09    failed    failed  9.300e-06   25.0000 1
437    1.7000    1.5000    1.0000    1.0000  6.314e-09    failed    failed  9.600e-06   25.0000 1
438    1.8000    1.5000    1.0000    1.0000  6.318e-09  8.143e-09  8.143e-09  9.900e-06   25.0000 1
439    1.9000    1.5000    1.0000    1.0000  6.320e-09  6.358e-09  6.358e-09  1.020e-05   25.0000 1
440    2.0000    1.5000    1.0000    1.0000  6.324e-09  5.415e-09  6.324e-09  1.050e-05   25.0000 1
441    2.1000    1.5000    1.0000    1.0000  6.327e-09  4.817e-09  6.327e-09  1.080e-05   25.0000 1
442    2.2000    1.5000    1.0000    1.0000  6.329e-09  4.398e-09  6.329e-09  1.110e-05   25.0000 1
443    2.3000    1.5000    1.0000    1.0000  6.332e-09  4.084e-09  6.332e-09  1.140e-05   25.0000 1
444    2.4000    1.5000    1.0000    1.0000  6.335e-09  3.841e-09  6.335e-09  1.170e-05   25.0000 1
445    2.5000    1.5000    1.0000    1.0000  6.339e-09  3.645e-09  6.339e-09  1.200e-05   25.0000 1
446    2.6000    1.5000    1.0000    1.0000  6.341e-09  3.483e-09  6.341e-09  1.230e-05   25.0000 1
447    2.7000    1.5000    1.0000    1.0000  6.345e-09  3.348e-09  6.345e-09  1.260e-05   25.0000 1
448    2.8000    1.5000    1.0000    1.0000  6.346e-09  3.232e-09  6.346e-09  1.290e-05   25.0000 1
449    2.9000    1.5000    1.0000    1.0000  6.350e-09  3.133e-09  6.350e-09  1.320e-05   25.0000 1
450    3.0000    1.5000    1.0000    1.0000  6.352e-09  3.049e-09  6.352e-09  1.350e-05   25.0000 1
451    0.1000    1.6000    1.0000    1.0000  5.325e-09    failed    failed  5.100e-06   25.0000 1
452    0.2000    1.6000    1.0000    1.0000  5.326e-09    failed    failed  5.400e-06   25.0000 1
453    0.3000    1.6000    1.0000    1.0000  5.328e-09    failed    failed  5.700e-06   25.0000 1
454    0.4000    1.6000    1.0000    1.0000  5.331e-09    failed    failed  6.000e-06   25.0000 1
455    0.5000    1.6000    1.0000    1.0000  5.333e-09    failed    failed  6.300e-06   25.0000 1
456    0.6000    1.6000    1.0000    1.0000  5.335e-09    failed    failed  6.600e-06   25.0000 1
457    0.7000    1.6000    1.0000    1.0000  5.336e-09    failed    failed  6.900e-06   25.0000 1
458    0.8000    1.6000    1.0000    1.0000  5.338e-09    failed    failed  7.200e-06   25.0000 1
459    0.9000    1.6000    1.0000    1.0000  5.341e-09    failed    failed  7.500e-06   25.0000 1
460    1.0000    1.6000    1.0000    1.0000  5.341e-09    failed    failed  7.800e-06   25.0000 1
461    1.1000    1.6000    1.0000    1.0000  5.343e-09    failed    failed  8.100e-06   25.0000 1
462    1.2000    1.6000    1.0000    1.0000  5.346e-09    failed    failed  8.400e-06   25.0000 1
463    1.3000    1.6000    1.0000    1.0000  5.348e-09    failed    failed  8.700e-06   25.0000 1
464    1.4000    1.6000    1.0000    1.0000  5.349e-09    failed    failed  9.000e-06   25.0000 1
465    1.5000    1.6000    1.0000    1.0000  5.351e-09    failed    failed  9.300e-06   25.0000 1
466    1.6000    1.6000    1.0000    1.0000  5.352e-09    failed    failed  9.600e-06   25.0000 1
467    1.7000    1.6000    1.0000    1.0000  5.355e-09    failed    failed  9.900e-06   25.0000 1
468    1.8000    1.6000    1.0000    1.0000  5.357e-09  8.150e-09  8.150e-09  1.020e-05   25.0000 1
469    1.9000    1.6000    1.0000    1.0000  5.358e-09  6.358e-09  6.358e-09  1.050e-05   25.0000 1
470    2.0000    1.6000    1.0000    1.0000  5.361e-09  5.417e-09  5.417e-09  1.080e-05   25.0000 1
471    2.1000    1.6000    1.0000    1.0000  5.362e-09  4.818e-09  5.362e-09  1.110e-05   25.0000 1
472    2.2000    1.6000    1.0000    1.0000  5.363e-09  4.399e-09  5.363e-09  1.140e-05   25.0000 1
473    2.3000    1.6000    1.0000    1.0000  5.367e-09  4.086e-09  5.367e-09  1.170e-05   25.0000 1
474    2.4000    1.6000    1.0000    1.0000  5.363e-09  3.843e-09  5.363e-09  1.200e-05   25.0000 1
475    2.5000    1.6000    1.0000    1.0000  5.369e-09  3.646e-09  5.369e-09  1.230e-05   25.0000 1
476    2.6000    1.6000    1.0000    1.0000  5.371e-09  3.484e-09  5.371e-09  1.260e-05   25.0000 1
477    2.7000    1.6000    1.0000    1.0000  5.373e-09  3.349e-09  5.373e-09  1.290e-05   25.0000 1
478    2.8000    1.6000    1.0000    1.0000  5.375e-09  3.233e-09  5.375e-09  1.320e-05   25.0000 1
479    2.9000    1.6000    1.0000    1.0000  5.378e-09  3.134e-09  5.378e-09  1.350e-05   25.0000 1
480    3.0000    1.6000    1.0000    1.0000  5.380e-09  3.047e-09  5.380e-09  1.380e-05   25.0000 1
481    0.1000    1.7000    1.0000    1.0000  4.734e-09    failed    failed  5.400e-06   25.0000 1
482    0.2000    1.7000    1.0000    1.0000  4.736e-09    failed    failed  5.700e-06   25.0000 1
483    0.3000    1.7000    1.0000    1.0000  4.737e-09    failed    failed  6.000e-06   25.0000 1
484    0.4000    1.7000    1.0000    1.0000  4.739e-09    failed    failed  6.300e-06   25.0000 1
485    0.5000    1.7000    1.0000    1.0000  4.739e-09    failed    failed  6.600e-06   25.0000 1
486    0.6000    1.7000    1.0000    1.0000  4.741e-09    failed    failed  6.900e-06   25.0000 1
487    0.7000    1.7000    1.0000    1.0000  4.738e-09    failed    failed  7.200e-06   25.0000 1
488    0.8000    1.7000    1.0000    1.0000  4.744e-09    failed    failed  7.500e-06   25.0000 1
489    0.9000    1.7000    1.0000    1.0000  4.745e-09    failed    failed  7.800e-06   25.0000 1
490    1.0000    1.7000    1.0000    1.0000  4.747e-09    failed    failed  8.100e-06   25.0000 1
491    1.1000    1.7000    1.0000    1.0000  4.747e-09    failed    failed  8.400e-06   25.0000 1
492    1.2000    1.7000    1.0000    1.0000  4.749e-09    failed    failed  8.700e-06   25.0000 1
493    1.3000    1.7000    1.0000    1.0000  4.750e-09    failed    failed  9.000e-06   25.0000 1
494    1.4000    1.7000    1.0000    1.0000  4.753e-09    failed    failed  9.300e-06   25.0000 1
495    1.5000    1.7000    1.0000    1.0000  4.753e-09    failed    failed  9.600e-06   25.0000 1
496    1.6000    1.7000    1.0000    1.0000  4.755e-09    failed    failed  9.900e-06   25.0000 1
497    1.7000    1.7000    1.0000    1.0000  4.756e-09    failed    failed  1.020e-05   25.0000 1
498    1.8000    1.7000    1.0000    1.0000  4.757e-09  8.158e-09  8.158e-09  1.050e-05   25.0000 1
499    1.9000    1.7000    1.0000    1.0000  4.759e-09  6.359e-09  6.359e-09  1.080e-05   25.0000 1
500    2.0000    1.7000    1.0000    1.0000  4.761e-09  5.418e-09  5.418e-09  1.110e-05   25.0000 1
501    2.1000    1.7000    1.0000    1.0000  4.761e-09  4.819e-09  4.819e-09  1.140e-05   25.0000 1
502    2.2000    1.7000    1.0000    1.0000  4.762e-09  4.399e-09  4.762e-09  1.170e-05   25.0000 1
503    2.3000    1.7000    1.0000    1.0000  4.764e-09  4.086e-09  4.764e-09  1.200e-05   25.0000 1
504    2.4000    1.7000    1.0000    1.0000  4.765e-09  3.842e-09  4.765e-09  1.230e-05   25.0000 1
505    2.5000    1.7000    1.0000    1.0000  4.767e-09  3.646e-09  4.767e-09  1.260e-05   25.0000 1
506    2.6000    1.7000    1.0000    1.0000  4.769e-09  3.485e-09  4.769e-09  1.290e-05   25.0000 1
507    2.7000    1.7000    1.0000    1.0000  4.770e-09  3.349e-09  4.770e-09  1.320e-05   25.0000 1
508    2.8000    1.7000    1.0000    1.0000  4.771e-09  3.233e-09  4.771e-09  1.350e-05   25.0000 1
509    2.9000    1.7000    1.0000    1.0000  4.773e-09  3.135e-09  4.773e-09  1.380e-05   25.0000 1
510    3.0000    1.7000    1.0000    1.0000  4.774e-09  3.048e-09  4.774e-09  1.410e-05   25.0000 1
511    0.1000    1.8000    1.0000    1.0000  4.322e-09    failed    failed  5.700e-06   25.0000 1
512    0.2000    1.8000    1.0000    1.0000  4.324e-09    failed    failed  6.000e-06   25.0000 1
513    0.3000    1.8000    1.0000    1.0000  4.324e-09    failed    failed  6.300e-06   25.0000 1
514    0.4000    1.8000    1.0000    1.0000  4.327e-09    failed    failed  6.600e-06   25.0000 1
515    0.5000    1.8000    1.0000    1.0000  4.326e-09    failed    failed  6.900e-06   25.0000 1
516    0.6000    1.8000    1.0000    1.0000  4.328e-09    failed    failed  7.200e-06   25.0000 1
517    0.7000    1.8000    1.0000    1.0000  4.328e-09    failed    failed  7.500e-06   25.0000 1
518    0.8000    1.8000    1.0000    1.0000  4.330e-09    failed    failed  7.800e-06   25.0000 1
519    0.9000    1.8000    1.0000    1.0000  4.332e-09    failed    failed  8.100e-06   25.0000 1
520    1.0000    1.8000    1.0000    1.0000  4.332e-09    failed    failed  8.400e-06   25.0000 1
521    1.1000    1.8000    1.0000    1.0000  4.334e-09    failed    failed  8.700e-06   25.0000 1
522    1.2000    1.8000    1.0000    1.0000  4.334e-09    failed    failed  9.000e-06   25.0000 1
523    1.3000    1.8000    1.0000    1.0000  4.335e-09    failed    failed  9.300e-06   25.0000 1
524    1.4000    1.8000    1.0000    1.0000  4.337e-09    failed    failed  9.600e-06   25.0000 1
525    1.5000    1.8000    1.0000    1.0000  4.338e-09    failed    failed  9.900e-06   25.0000 1
526    1.6000    1.8000    1.0000    1.0000  4.338e-09    failed    failed  1.020e-05   25.0000 1
527    1.7000    1.8000    1.0000    1.0000  4.340e-09    failed    failed  1.050e-05   25.0000 1
528    1.8000    1.8000    1.0000    1.0000  4.341e-09  8.155e-09  8.155e-09  1.080e-05   25.0000 1
529    1.9000    1.8000    1.0000    1.0000  4.342e-09  6.361e-09  6.361e-09  1.110e-05   25.0000 1
530    2.0000    1.8000    1.0000    1.0000  4.342e-09  5.419e-09  5.419e-09  1.140e-05   25.0000 1
531    2.1000    1.8000    1.0000    1.0000  4.344e-09  4.820e-09  4.820e-09  1.170e-05   25.0000 1
532    2.2000    1.8000    1.0000    1.0000  4.346e-09  4.400e-09  4.400e-09  1.200e-05   25.0000 1
533    2.3000    1.8000    1.0000    1.0000  4.347e-09  4.087e-09  4.347e-09  1.230e-05   25.0000 1
534    2.4000    1.8000    1.0000    1.0000  4.348e-09  3.842e-09  4.348e-09  1.260e-05   25.0000 1
535    2.5000    1.8000    1.0000    1.0000  4.349e-09  3.646e-09  4.349e-09  1.290e-05   25.0000 1
536    2.6000    1.8000    1.0000    1.0000  4.349e-09  3.487e-09  4.349e-09  1.320e-05   25.0000 1
537    2.7000    1.8000    1.0000    1.0000  4.351e-09  3.349e-09  4.351e-09  1.350e-05   25.0000 1
538    2.8000    1.8000    1.0000    1.0000  4.352e-09  3.234e-09  4.352e-09  1.380e-05   25.0000 1
539    2.9000    1.8000    1.0000    1.0000  4.353e-09  3.135e-09  4.353e-09  1.410e-05   25.0000 1
540    3.0000    1.8000    1.0000    1.0000  4.354e-09  3.048e-09  4.354e-09  1.440e-05   25.0000 1
541    0.1000    1.9000    1.0000    1.0000  4.016e-09    failed    failed  6.000e-06   25.0000 1
542    0.2000    1.9000    1.0000    1.0000  4.017e-09    failed    failed  6.300e-06   25.0000 1
543    0.3000    1.9000    1.0000    1.0000  4.018e-09    failed    failed  6.600e-06   25.0000 1
544    0.4000    1.9000    1.0000    1.0000  4.018e-09    failed    failed  6.900e-06   25.0000 1
545    0.5000    1.9000    1.0000    1.0000  4.020e-09    failed    failed  7.200e-06   25.0000 1
546    0.6000    1.9000    1.0000    1.0000  4.021e-09    failed    failed  7.500e-06   25.0000 1
547    0.7000    1.9000    1.0000    1.0000  4.022e-09    failed    failed  7.800e-06   25.0000 1
548    0.8000    1.9000    1.0000    1.0000  4.022e-09    failed    failed  8.100e-06   25.0000 1
549    0.9000    1.9000    1.0000    1.0000  4.024e-09    failed    failed  8.400e-06   25.0000 1
550    1.0000    1.9000    1.0000    1.0000  4.025e-09    failed    failed  8.700e-06   25.0000 1
551    1.1000    1.9000    1.0000    1.0000  4.025e-09    failed    failed  9.000e-06   25.0000 1
552    1.2000    1.9000    1.0000    1.0000  4.026e-09    failed    failed  9.300e-06   25.0000 1
553    1.3000    1.9000    1.0000    1.0000  4.027e-09    failed    failed  9.600e-06   25.0000 1
554    1.4000    1.9000    1.0000    1.0000  4.028e-09    failed    failed  9.900e-06   25.0000 1
555    1.5000    1.9000    1.0000    1.0000  4.029e-09    failed    failed  1.020e-05   25.0000 1
556    1.6000    1.9000    1.0000    1.0000  4.031e-09    failed    failed  1.050e-05   25.0000 1
557    1.7000    1.9000    1.0000    1.0000  4.031e-09    failed    failed  1.080e-05   25.0000 1
558    1.8000    1.9000    1.0000    1.0000  4.031e-09  8.156e-09  8.156e-09  1.110e-05   25.0000 1
559    1.9000    1.9000    1.0000    1.0000  4.032e-09  6.361e-09  6.361e-09  1.140e-05   25.0000 1
560    2.0000    1.9000    1.0000    1.0000  4.033e-09  5.419e-09  5.419e-09  1.170e-05   25.0000 1
561    2.1000    1.9000    1.0000    1.0000  4.034e-09  4.820e-09  4.820e-09  1.200e-05   25.0000 1
562    2.2000    1.9000    1.0000    1.0000  4.035e-09  4.401e-09  4.401e-09  1.230e-05   25.0000 1
563    2.3000    1.9000    1.0000    1.0000  4.036e-09  4.088e-09  4.088e-09  1.260e-05   25.0000 1
564    2.4000    1.9000    1.0000    1.0000  4.037e-09  3.842e-09  4.037e-09  1.290e-05   25.0000 1
565    2.5000    1.9000    1.0000    1.0000  4.038e-09  3.647e-09  4.038e-09  1.320e-05   25.0000 1
566    2.6000    1.9000    1.0000    1.0000  4.039e-09  3.485e-09  4.039e-09  1.350e-05   25.0000 1
567    2.7000    1.9000    1.0000    1.0000  4.039e-09  3.350e-09  4.039e-09  1.380e-05   25.0000 1
568    2.8000    1.9000    1.0000    1.0000  4.041e-09  3.234e-09  4.041e-09  1.410e-05   25.0000 1
569    2.9000    1.9000    1.0000    1.0000  4.041e-09  3.135e-09  4.041e-09  1.440e-05   25.0000 1
570    3.0000    1.9000    1.0000    1.0000  4.042e-09  3.048e-09  4.042e-09  1.470e-05   25.0000 1
571    0.1000    2.0000    1.0000    1.0000  3.778e-09    failed    failed  6.300e-06   25.0000 1
572    0.2000    2.0000    1.0000    1.0000  3.778e-09    failed    failed  6.600e-06   25.0000 1
573    0.3000    2.0000    1.0000    1.0000  3.780e-09    failed    failed  6.900e-06   25.0000 1
574    0.4000    2.0000    1.0000    1.0000  3.780e-09    failed    failed  7.200e-06   25.0000 1
575    0.5000    2.0000    1.0000    1.0000  3.781e-09    failed    failed  7.500e-06   25.0000 1
576    0.6000    2.0000    1.0000    1.0000  3.782e-09    failed    failed  7.800e-06   25.0000 1
577    0.7000    2.0000    1.0000    1.0000  3.783e-09    failed    failed  8.100e-06   25.0000 1
578    0.8000    2.0000    1.0000    1.0000  3.783e-09    failed    failed  8.400e-06   25.0000 1
579    0.9000    2.0000    1.0000    1.0000  3.784e-09    failed    failed  8.700e-06   25.0000 1
580    1.0000    2.0000    1.0000    1.0000  3.785e-09    failed    failed  9.000e-06   25.0000 1
581    1.1000    2.0000    1.0000    1.0000  3.786e-09    failed    failed  9.300e-06   25.0000 1
582    1.2000    2.0000    1.0000    1.0000  3.787e-09    failed    failed  9.600e-06   25.0000 1
583    1.3000    2.0000    1.0000    1.0000  3.787e-09    failed    failed  9.900e-06   25.0000 1
584    1.4000    2.0000    1.0000    1.0000  3.788e-09    failed    failed  1.020e-05   25.0000 1
585    1.5000    2.0000    1.0000    1.0000  3.789e-09    failed    failed  1.050e-05   25.0000 1
586    1.6000    2.0000    1.0000    1.0000  3.789e-09    failed    failed  1.080e-05   25.0000 1
587    1.7000    2.0000    1.0000    1.0000  3.790e-09    failed    failed  1.110e-05   25.0000 1
588    1.8000    2.0000    1.0000    1.0000  3.791e-09  8.154e-09  8.154e-09  1.140e-05   25.0000 1
589    1.9000    2.0000    1.0000    1.0000  3.792e-09  6.364e-09  6.364e-09  1.170e-05   25.0000 1
590    2.0000    2.0000    1.0000    1.0000  3.793e-09  5.420e-09  5.420e-09  1.200e-05   25.0000 1
591    2.1000    2.0000    1.0000    1.0000  3.794e-09  4.820e-09  4.820e-09  1.230e-05   25.0000 1
592    2.2000    2.0000    1.0000    1.0000  3.794e-09  4.402e-09  4.402e-09  1.260e-05   25.0000 1
593    2.3000    2.0000    1.0000    1.0000  3.794e-09  4.088e-09  4.088e-09  1.290e-05   25.0000 1
594    2.4000    2.0000    1.0000    1.0000  3.795e-09  3.843e-09  3.843e-09  1.320e-05   25.0000 1
595    2.5000    2.0000    1.0000    1.0000  3.796e-09  3.647e-09  3.796e-09  1.350e-05   25.0000 1
596    2.6000    2.0000    1.0000    1.0000  3.797e-09  3.485e-09  3.797e-09  1.380e-05   25.0000 1
597    2.7000    2.0000    1.0000    1.0000  3.799e-09  3.350e-09  3.799e-09  1.410e-05   25.0000 1
598    2.8000    2.0000    1.0000    1.0000  3.798e-09  3.235e-09  3.798e-09  1.440e-05   25.0000 1
599    2.9000    2.0000    1.0000    1.0000  3.800e-09  3.136e-09  3.800e-09  1.470e-05   25.0000 1
600    3.0000    2.0000    1.0000    1.0000  3.800e-09  3.047e-09  3.800e-09  1.500e-05   25.0000 1
601    0.1000    2.1000    1.0000    1.0000  3.587e-09    failed    failed  6.600e-06   25.0000 1
602    0.2000    2.1000    1.0000    1.0000  3.588e-09    failed    failed  6.900e-06   25.0000 1
603    0.3000    2.1000    1.0000    1.0000  3.588e-09    failed    failed  7.200e-06   25.0000 1
604    0.4000    2.1000    1.0000    1.0000  3.589e-09    failed    failed  7.500e-06   25.0000 1
605    0.5000    2.1000    1.0000    1.0000  3.589e-09    failed    failed  7.800e-06   25.0000 1
606    0.6000    2.1000    1.0000    1.0000  3.590e-09    failed    failed  8.100e-06   25.0000 1
607    0.7000    2.1000    1.0000    1.0000  3.590e-09    failed    failed  8.400e-06   25.0000 1
608    0.8000    2.1000    1.0000    1.0000  3.591e-09    failed    failed  8.700e-06   25.0000 1
609    0.9000    2.1000    1.0000    1.0000  3.595e-09    failed    failed  9.000e-06   25.0000 1
610    1.0000    2.1000    1.0000    1.0000  3.593e-09    failed    failed  9.300e-06   25.0000 1
611    1.1000    2.1000    1.0000    1.0000  3.594e-09    failed    failed  9.600e-06   25.0000 1
612    1.2000    2.1000    1.0000    1.0000  3.594e-09    failed    failed  9.900e-06   25.0000 1
613    1.3000    2.1000    1.0000    1.0000  3.594e-09    failed    failed  1.020e-05   25.0000 1
614    1.4000    2.1000    1.0000    1.0000  3.596e-09    failed    failed  1.050e-05   25.0000 1
615    1.5000    2.1000    1.0000    1.0000  3.596e-09    failed    failed  1.080e-05   25.0000 1
616    1.6000    2.1000    1.0000    1.0000  3.597e-09    failed    failed  1.110e-05   25.0000 1
617    1.7000    2.1000    1.0000    1.0000  3.597e-09    failed    failed  1.140e-05   25.0000 1
618    1.8000    2.1000    1.0000    1.0000  3.598e-09  8.163e-09  8.163e-09  1.170e-05   25.0000 1
619    1.9000    2.1000    1.0000    1.0000  3.599e-09  6.365e-09  6.365e-09  1.200e-05   25.0000 1
620    2.0000    2.1000    1.0000    1.0000  3.599e-09  5.423e-09  5.423e-09  1.230e-05   25.0000 1
621    2.1000    2.1000    1.0000    1.0000  3.600e-09  4.822e-09  4.822e-09  1.260e-05   25.0000 1
622    2.2000    2.1000    1.0000    1.0000  3.601e-09  4.402e-09  4.402e-09  1.290e-05   25.0000 1
623    2.3000    2.1000    1.0000    1.0000  3.602e-09  4.089e-09  4.089e-09  1.320e-05   25.0000 1
624    2.4000    2.1000    1.0000    1.0000  3.602e-09  3.844e-09  3.844e-09  1.350e-05   25.0000 1
625    2.5000    2.1000    1.0000    1.0000  3.603e-09  3.647e-09  3.647e-09  1.380e-05   25.0000 1
626    2.6000    2.1000    1.0000    1.0000  3.603e-09  3.485e-09  3.603e-09  1.410e-05   25.0000 1
627    2.7000    2.1000    1.0000    1.0000  3.604e-09  3.350e-09  3.604e-09  1.440e-05   25.0000 1
628    2.8000    2.1000    1.0000    1.0000  3.605e-09  3.236e-09  3.605e-09  1.470e-05   25.0000 1
629    2.9000    2.1000    1.0000    1.0000  3.605e-09  3.136e-09  3.605e-09  1.500e-05   25.0000 1
630    3.0000    2.1000    1.0000    1.0000  3.606e-09  3.048e-09  3.606e-09  1.530e-05   25.0000 1
631    0.1000    2.2000    1.0000    1.0000  3.429e-09    failed    failed  6.900e-06   25.0000 1
632    0.2000    2.2000    1.0000    1.0000  3.430e-09    failed    failed  7.200e-06   25.0000 1
633    0.3000    2.2000    1.0000    1.0000  3.431e-09    failed    failed  7.500e-06   25.0000 1
634    0.4000    2.2000    1.0000    1.0000  3.431e-09    failed    failed  7.800e-06   25.0000 1
635    0.5000    2.2000    1.0000    1.0000  3.432e-09    failed    failed  8.100e-06   25.0000 1
636    0.6000    2.2000    1.0000    1.0000  3.433e-09    failed    failed  8.400e-06   25.0000 1
637    0.7000    2.2000    1.0000    1.0000  3.433e-09    failed    failed  8.700e-06   25.0000 1
638    0.8000    2.2000    1.0000    1.0000  3.433e-09    failed    failed  9.000e-06   25.0000 1
639    0.9000    2.2000    1.0000    1.0000  3.435e-09    failed    failed  9.300e-06   25.0000 1
640    1.0000    2.2000    1.0000    1.0000  3.435e-09    failed    failed  9.600e-06   25.0000 1
641    1.1000    2.2000    1.0000    1.0000  3.436e-09    failed    failed  9.900e-06   25.0000 1
642    1.2000    2.2000    1.0000    1.0000  3.437e-09    failed    failed  1.020e-05   25.0000 1
643    1.3000    2.2000    1.0000    1.0000  3.437e-09    failed    failed  1.050e-05   25.0000 1
644    1.4000    2.2000    1.0000    1.0000  3.437e-09    failed    failed  1.080e-05   25.0000 1
645    1.5000    2.2000    1.0000    1.0000  3.438e-09    failed    failed  1.110e-05   25.0000 1
646    1.6000    2.2000    1.0000    1.0000  3.438e-09    failed    failed  1.140e-05   25.0000 1
647    1.7000    2.2000    1.0000    1.0000  3.439e-09    failed    failed  1.170e-05   25.0000 1
648    1.8000    2.2000    1.0000    1.0000  3.440e-09  8.180e-09  8.180e-09  1.200e-05   25.0000 1
649    1.9000    2.2000    1.0000    1.0000  3.440e-09  6.366e-09  6.366e-09  1.230e-05   25.0000 1
650    2.0000    2.2000    1.0000    1.0000  3.441e-09  5.422e-09  5.422e-09  1.260e-05   25.0000 1
651    2.1000    2.2000    1.0000    1.0000  3.441e-09  4.823e-09  4.823e-09  1.290e-05   25.0000 1
652    2.2000    2.2000    1.0000    1.0000  3.442e-09  4.401e-09  4.401e-09  1.320e-05   25.0000 1
653    2.3000    2.2000    1.0000    1.0000  3.443e-09  4.088e-09  4.088e-09  1.350e-05   25.0000 1
654    2.4000    2.2000    1.0000    1.0000  3.443e-09  3.844e-09  3.844e-09  1.380e-05   25.0000 1
655    2.5000    2.2000    1.0000    1.0000  3.444e-09  3.647e-09  3.647e-09  1.410e-05   25.0000 1
656    2.6000    2.2000    1.0000    1.0000  3.445e-09  3.486e-09  3.486e-09  1.440e-05   25.0000 1
657    2.7000    2.2000    1.0000    1.0000  3.446e-09  3.350e-09  3.446e-09  1.470e-05   25.0000 1
658    2.8000    2.2000    1.0000    1.0000  3.446e-09  3.235e-09  3.446e-09  1.500e-05   25.0000 1
659    2.9000    2.2000    1.0000    1.0000  3.446e-09  3.136e-09  3.446e-09  1.530e-05   25.0000 1
660    3.0000    2.2000    1.0000    1.0000  3.447e-09  3.049e-09  3.447e-09  1.560e-05   25.0000 1
661    0.1000    2.3000    1.0000    1.0000  3.298e-09    failed    failed  7.200e-06   25.0000 1
662    0.2000    2.3000    1.0000    1.0000  3.298e-09    failed    failed  7.500e-06   25.0000 1
663    0.3000    2.3000    1.0000    1.0000  3.298e-09    failed    failed  7.800e-06   25.0000 1
664    0.4000    2.3000    1.0000    1.0000  3.299e-09    failed    failed  8.100e-06   25.0000 1
665    0.5000    2.3000    1.0000    1.0000  3.300e-09    failed    failed  8.400e-06   25.0000 1
666    0.6000    2.3000    1.0000    1.0000  3.301e-09    failed    failed  8.700e-06   25.0000 1
667    0.7000    2.3000    1.0000    1.0000  3.302e-09    failed    failed  9.000e-06   25.0000 1
668    0.8000    2.3000    1.0000    1.0000  3.302e-09    failed    failed  9.300e-06   25.0000 1
669    0.9000    2.3000    1.0000    1.0000  3.302e-09    failed    failed  9.600e-06   25.0000 1
670    1.0000    2.3000    1.0000    1.0000  3.303e-09    failed    failed  9.900e-06   25.0000 1
671    1.1000    2.3000    1.0000    1.0000  3.303e-09    failed    failed  1.020e-05   25.0000 1
672    1.2000    2.3000    1.0000    1.0000  3.304e-09    failed    failed  1.050e-05   25.0000 1
673    1.3000    2.3000    1.0000    1.0000  3.304e-09    failed    failed  1.080e-05   25.0000 1
674    1.4000    2.3000    1.0000    1.0000  3.304e-09    failed    failed  1.110e-05   25.0000 1
675    1.5000    2.3000    1.0000    1.0000  3.305e-09    failed    failed  1.140e-05   25.0000 1
676    1.6000    2.3000    1.0000    1.0000  3.306e-09    failed    failed  1.170e-05   25.0000 1
677    1.7000    2.3000    1.0000    1.0000  3.306e-09    failed    failed  1.200e-05   25.0000 1
678    1.8000    2.3000    1.0000    1.0000  3.307e-09  8.168e-09  8.168e-09  1.230e-05   25.0000 1
679    1.9000    2.3000    1.0000    1.0000  3.307e-09  6.369e-09  6.369e-09  1.260e-05   25.0000 1
680    2.0000    2.3000    1.0000    1.0000  3.309e-09  5.423e-09  5.423e-09  1.290e-05   25.0000 1
681    2.1000    2.3000    1.0000    1.0000  3.309e-09  4.824e-09  4.824e-09  1.320e-05   25.0000 1
682    2.2000    2.3000    1.0000    1.0000  3.309e-09  4.403e-09  4.403e-09  1.350e-05   25.0000 1
683    2.3000    2.3000    1.0000    1.0000  3.310e-09  4.093e-09  4.093e-09  1.380e-05   25.0000 1
684    2.4000    2.3000    1.0000    1.0000  3.310e-09  3.844e-09  3.844e-09  1.410e-05   25.0000 1
685    2.5000    2.3000    1.0000    1.0000  3.311e-09  3.648e-09  3.648e-09  1.440e-05   25.0000 1
686    2.6000    2.3000    1.0000    1.0000  3.311e-09  3.486e-09  3.486e-09  1.470e-05   25.0000 1
687    2.7000    2.3000    1.0000    1.0000  3.312e-09  3.351e-09  3.351e-09  1.500e-05   25.0000 1
688    2.8000    2.3000    1.0000    1.0000  3.312e-09  3.235e-09  3.312e-09  1.530e-05   25.0000 1
689    2.9000    2.3000    1.0000    1.0000  3.312e-09  3.136e-09  3.312e-09  1.560e-05   25.0000 1
690    3.0000    2.3000    1.0000    1.0000  3.313e-09  3.050e-09  3.313e-09  1.590e-05   25.0000 1
691    0.1000    2.4000    1.0000    1.0000  3.186e-09    failed    failed  7.500e-06   25.0000 1
692    0.2000    2.4000    1.0000    1.0000  3.186e-09    failed    failed  7.800e-06   25.0000 1
693    0.3000    2.4000    1.0000    1.0000  3.186e-09    failed    failed  8.100e-06   25.0000 1
694    0.4000    2.4000    1.0000    1.0000  3.186e-09    failed    failed  8.400e-06   25.0000 1
695    0.5000    2.4000    1.0000    1.0000  3.188e-09    failed    failed  8.700e-06   25.0000 1
696    0.6000    2.4000    1.0000    1.0000  3.189e-09    failed    failed  9.000e-06   25.0000 1
697    0.7000    2.4000    1.0000    1.0000  3.188e-09    failed    failed  9.300e-06   25.0000 1
698    0.8000    2.4000    1.0000    1.0000  3.190e-09    failed    failed  9.600e-06   25.0000 1
699    0.9000    2.4000    1.0000    1.0000  3.189e-09    failed    failed  9.900e-06   25.0000 1
700    1.0000    2.4000    1.0000    1.0000  3.190e-09    failed    failed  1.020e-05   25.0000 1
701    1.1000    2.4000    1.0000    1.0000  3.191e-09    failed    failed  1.050e-05   25.0000 1
702    1.2000    2.4000    1.0000    1.0000  3.191e-09    failed    failed  1.080e-05   25.0000 1
703    1.3000    2.4000    1.0000    1.0000  3.192e-09    failed    failed  1.110e-05   25.0000 1
704    1.4000    2.4000    1.0000    1.0000  3.193e-09    failed    failed  1.140e-05   25.0000 1
705    1.5000    2.4000    1.0000    1.0000  3.193e-09    failed    failed  1.170e-05   25.0000 1
706    1.6000    2.4000    1.0000    1.0000  3.193e-09    failed    failed  1.200e-05   25.0000 1
707    1.7000    2.4000    1.0000    1.0000  3.194e-09    failed    failed  1.230e-05   25.0000 1
708    1.8000    2.4000    1.0000    1.0000  3.194e-09  8.173e-09  8.173e-09  1.260e-05   25.0000 1
709    1.9000    2.4000    1.0000    1.0000  3.195e-09  6.371e-09  6.371e-09  1.290e-05   25.0000 1
710    2.0000    2.4000    1.0000    1.0000  3.195e-09  5.423e-09  5.423e-09  1.320e-05   25.0000 1
711    2.1000    2.4000    1.0000    1.0000  3.196e-09  4.824e-09  4.824e-09  1.350e-05   25.0000 1
712    2.2000    2.4000    1.0000    1.0000  3.196e-09  4.403e-09  4.403e-09  1.380e-05   25.0000 1
713    2.3000    2.4000    1.0000    1.0000  3.197e-09  4.090e-09  4.090e-09  1.410e-05   25.0000 1
714    2.4000    2.4000    1.0000    1.0000  3.197e-09  3.845e-09  3.845e-09  1.440e-05   25.0000 1
715    2.5000    2.4000    1.0000    1.0000  3.198e-09  3.649e-09  3.649e-09  1.470e-05   25.0000 1
716    2.6000    2.4000    1.0000    1.0000  3.198e-09  3.487e-09  3.487e-09  1.500e-05   25.0000 1
717    2.7000    2.4000    1.0000    1.0000  3.199e-09  3.351e-09  3.351e-09  1.530e-05   25.0000 1
718    2.8000    2.4000    1.0000    1.0000  3.200e-09  3.236e-09  3.236e-09  1.560e-05   25.0000 1
719    2.9000    2.4000    1.0000    1.0000  3.199e-09  3.136e-09  3.199e-09  1.590e-05   25.0000 1
720    3.0000    2.4000    1.0000    1.0000  3.200e-09  3.050e-09  3.200e-09  1.620e-05   25.0000 1
721    0.1000    2.5000    1.0000    1.0000  3.088e-09    failed    failed  7.800e-06   25.0000 1
722    0.2000    2.5000    1.0000    1.0000  3.090e-09    failed    failed  8.100e-06   25.0000 1
723    0.3000    2.5000    1.0000    1.0000  3.090e-09    failed    failed  8.400e-06   25.0000 1
724    0.4000    2.5000    1.0000    1.0000  3.091e-09    failed    failed  8.700e-06   25.0000 1
725    0.5000    2.5000    1.0000    1.0000  3.091e-09    failed    failed  9.000e-06   25.0000 1
726    0.6000    2.5000    1.0000    1.0000  3.092e-09    failed    failed  9.300e-06   25.0000 1
727    0.7000    2.5000    1.0000    1.0000  3.092e-09    failed    failed  9.600e-06   25.0000 1
728    0.8000    2.5000    1.0000    1.0000  3.093e-09    failed    failed  9.900e-06   25.0000 1
729    0.9000    2.5000    1.0000    1.0000  3.094e-09    failed    failed  1.020e-05   25.0000 1
730    1.0000    2.5000    1.0000    1.0000  3.093e-09    failed    failed  1.050e-05   25.0000 1
731    1.1000    2.5000    1.0000    1.0000  3.093e-09    failed    failed  1.080e-05   25.0000 1
732    1.2000    2.5000    1.0000    1.0000  3.095e-09    failed    failed  1.110e-05   25.0000 1
733    1.3000    2.5000    1.0000    1.0000  3.095e-09    failed    failed  1.140e-05   25.0000 1
734    1.4000    2.5000    1.0000    1.0000  3.096e-09    failed    failed  1.170e-05   25.0000 1
735    1.5000    2.5000    1.0000    1.0000  3.095e-09    failed    failed  1.200e-05   25.0000 1
736    1.6000    2.5000    1.0000    1.0000  3.096e-09    failed    failed  1.230e-05   25.0000 1
737    1.7000    2.5000    1.0000    1.0000  3.096e-09    failed    failed  1.260e-05   25.0000 1
738    1.8000    2.5000    1.0000    1.0000  3.096e-09  8.188e-09  8.188e-09  1.290e-05   25.0000 1
739    1.9000    2.5000    1.0000    1.0000  3.097e-09  6.372e-09  6.372e-09  1.320e-05   25.0000 1
740    2.0000    2.5000    1.0000    1.0000  3.098e-09  5.425e-09  5.425e-09  1.350e-05   25.0000 1
741    2.1000    2.5000    1.0000    1.0000  3.099e-09  4.825e-09  4.825e-09  1.380e-05   25.0000 1
742    2.2000    2.5000    1.0000    1.0000  3.098e-09  4.404e-09  4.404e-09  1.410e-05   25.0000 1
743    2.3000    2.5000    1.0000    1.0000  3.099e-09  4.089e-09  4.089e-09  1.440e-05   25.0000 1
744    2.4000    2.5000    1.0000    1.0000  3.099e-09  3.845e-09  3.845e-09  1.470e-05   25.0000 1
745    2.5000    2.5000    1.0000    1.0000  3.100e-09  3.649e-09  3.649e-09  1.500e-05   25.0000 1
746    2.6000    2.5000    1.0000    1.0000  3.101e-09  3.488e-09  3.488e-09  1.530e-05   25.0000 1
747    2.7000    2.5000    1.0000    1.0000  3.101e-09  3.351e-09  3.351e-09  1.560e-05   25.0000 1
748    2.8000    2.5000    1.0000    1.0000  3.101e-09  3.237e-09  3.237e-09  1.590e-05   25.0000 1
749    2.9000    2.5000    1.0000    1.0000  3.102e-09  3.136e-09  3.136e-09  1.620e-05   25.0000 1
750    3.0000    2.5000    1.0000    1.0000  3.103e-09  3.049e-09  3.103e-09  1.650e-05   25.0000 1
751    0.1000    2.6000    1.0000    1.0000  3.005e-09    failed    failed  8.100e-06   25.0000 1
752    0.2000    2.6000    1.0000    1.0000  3.005e-09    failed    failed  8.400e-06   25.0000 1
753    0.3000    2.6000    1.0000    1.0000  3.005e-09    failed    failed  8.700e-06   25.0000 1
754    0.4000    2.6000    1.0000    1.0000  3.006e-09    failed    failed  9.000e-06   25.0000 1
755    0.5000    2.6000    1.0000    1.0000  3.006e-09    failed    failed  9.300e-06   25.0000 1
756    0.6000    2.6000    1.0000    1.0000  3.007e-09    failed    failed  9.600e-06   25.0000 1
757    0.7000    2.6000    1.0000    1.0000  3.007e-09    failed    failed  9.900e-06   25.0000 1
758    0.8000    2.6000    1.0000    1.0000  3.007e-09    failed    failed  1.020e-05   25.0000 1
759    0.9000    2.6000    1.0000    1.0000  3.008e-09    failed    failed  1.050e-05   25.0000 1
760    1.0000    2.6000    1.0000    1.0000  3.008e-09    failed    failed  1.080e-05   25.0000 1
761    1.1000    2.6000    1.0000    1.0000  3.009e-09    failed    failed  1.110e-05   25.0000 1
762    1.2000    2.6000    1.0000    1.0000  3.009e-09    failed    failed  1.140e-05   25.0000 1
763    1.3000    2.6000    1.0000    1.0000  3.010e-09    failed    failed  1.170e-05   25.0000 1
764    1.4000    2.6000    1.0000    1.0000  3.010e-09    failed    failed  1.200e-05   25.0000 1
765    1.5000    2.6000    1.0000    1.0000  3.010e-09    failed    failed  1.230e-05   25.0000 1
766    1.6000    2.6000    1.0000    1.0000  3.010e-09    failed    failed  1.260e-05   25.0000 1
767    1.7000    2.6000    1.0000    1.0000  3.011e-09    failed    failed  1.290e-05   25.0000 1
768    1.8000    2.6000    1.0000    1.0000  3.012e-09  8.174e-09  8.174e-09  1.320e-05   25.0000 1
769    1.9000    2.6000    1.0000    1.0000  3.012e-09  6.373e-09  6.373e-09  1.350e-05   25.0000 1
770    2.0000    2.6000    1.0000    1.0000  3.012e-09  5.426e-09  5.426e-09  1.380e-05   25.0000 1
771    2.1000    2.6000    1.0000    1.0000  3.012e-09  4.826e-09  4.826e-09  1.410e-05   25.0000 1
772    2.2000    2.6000    1.0000    1.0000  3.013e-09  4.405e-09  4.405e-09  1.440e-05   25.0000 1
773    2.3000    2.6000    1.0000    1.0000  3.014e-09  4.091e-09  4.091e-09  1.470e-05   25.0000 1
774    2.4000    2.6000    1.0000    1.0000  3.014e-09  3.846e-09  3.846e-09  1.500e-05   25.0000 1
775    2.5000    2.6000    1.0000    1.0000  3.013e-09  3.649e-09  3.649e-09  1.530e-05   25.0000 1
776    2.6000    2.6000    1.0000    1.0000  3.015e-09  3.487e-09  3.487e-09  1.560e-05   25.0000 1
777    2.7000    2.6000    1.0000    1.0000  3.015e-09  3.352e-09  3.352e-09  1.590e-05   25.0000 1
778    2.8000    2.6000    1.0000    1.0000  3.015e-09  3.236e-09  3.236e-09  1.620e-05   25.0000 1
779    2.9000    2.6000    1.0000    1.0000  3.017e-09  3.137e-09  3.137e-09  1.650e-05   25.0000 1
780    3.0000    2.6000    1.0000    1.0000  3.017e-09  3.050e-09  3.050e-09  1.680e-05   25.0000 1
781    0.1000    2.7000    1.0000    1.0000  2.930e-09    failed    failed  8.400e-06   25.0000 1
782    0.2000    2.7000    1.0000    1.0000  2.930e-09    failed    failed  8.700e-06   25.0000 1
783    0.3000    2.7000    1.0000    1.0000  2.930e-09    failed    failed  9.000e-06   25.0000 1
784    0.4000    2.7000    1.0000    1.0000  2.931e-09    failed    failed  9.300e-06   25.0000 1
785    0.5000    2.7000    1.0000    1.0000  2.931e-09    failed    failed  9.600e-06   25.0000 1
786    0.6000    2.7000    1.0000    1.0000  2.932e-09    failed    failed  9.900e-06   25.0000 1
787    0.7000    2.7000    1.0000    1.0000  2.932e-09    failed    failed  1.020e-05   25.0000 1
788    0.8000    2.7000    1.0000    1.0000  2.933e-09    failed    failed  1.050e-05   25.0000 1
789    0.9000    2.7000    1.0000    1.0000  2.933e-09    failed    failed  1.080e-05   25.0000 1
790    1.0000    2.7000    1.0000    1.0000  2.933e-09    failed    failed  1.110e-05   25.0000 1
791    1.1000    2.7000    1.0000    1.0000  2.934e-09    failed    failed  1.140e-05   25.0000 1
792    1.2000    2.7000    1.0000    1.0000  2.934e-09    failed    failed  1.170e-05   25.0000 1
793    1.3000    2.7000    1.0000    1.0000  2.935e-09    failed    failed  1.200e-05   25.0000 1
794    1.4000    2.7000    1.0000    1.0000  2.935e-09    failed    failed  1.230e-05   25.0000 1
795    1.5000    2.7000    1.0000    1.0000  2.935e-09    failed    failed  1.260e-05   25.0000 1
796    1.6000    2.7000    1.0000    1.0000  2.935e-09    failed    failed  1.290e-05   25.0000 1
797    1.7000    2.7000    1.0000    1.0000  2.936e-09    failed    failed  1.320e-05   25.0000 1
798    1.8000    2.7000    1.0000    1.0000  2.936e-09  8.184e-09  8.184e-09  1.350e-05   25.0000 1
799    1.9000    2.7000    1.0000    1.0000  2.937e-09  6.375e-09  6.375e-09  1.380e-05   25.0000 1
800    2.0000    2.7000    1.0000    1.0000  2.937e-09  5.427e-09  5.427e-09  1.410e-05   25.0000 1
801    2.1000    2.7000    1.0000    1.0000  2.938e-09  4.827e-09  4.827e-09  1.440e-05   25.0000 1
802    2.2000    2.7000    1.0000    1.0000  2.938e-09  4.406e-09  4.406e-09  1.470e-05   25.0000 1
803    2.3000    2.7000    1.0000    1.0000  2.939e-09  4.091e-09  4.091e-09  1.500e-05   25.0000 1
804    2.4000    2.7000    1.0000    1.0000  2.939e-09  3.846e-09  3.846e-09  1.530e-05   25.0000 1
805    2.5000    2.7000    1.0000    1.0000  2.939e-09  3.650e-09  3.650e-09  1.560e-05   25.0000 1
806    2.6000    2.7000    1.0000    1.0000  2.940e-09  3.487e-09  3.487e-09  1.590e-05   25.0000 1
807    2.7000    2.7000    1.0000    1.0000  2.940e-09  3.352e-09  3.352e-09  1.620e-05   25.0000 1
808    2.8000    2.7000    1.0000    1.0000  2.940e-09  3.236e-09  3.236e-09  1.650e-05   25.0000 1
809    2.9000    2.7000    1.0000    1.0000  2.941e-09  3.137e-09  3.137e-09  1.680e-05   25.0000 1
810    3.0000    2.7000    1.0000    1.0000  2.941e-09  3.050e-09  3.050e-09  1.710e-05   25.0000 1
811    0.1000    2.8000    1.0000    1.0000  2.863e-09    failed    failed  8.700e-06   25.0000 1
812    0.2000    2.8000    1.0000    1.0000  2.863e-09    failed    failed  9.000e-06   25.0000 1
813    0.3000    2.8000    1.0000    1.0000  2.864e-09    failed    failed  9.300e-06   25.0000 1
814    0.4000    2.8000    1.0000    1.0000  2.864e-09    failed    failed  9.600e-06   25.0000 1
[...]
8069    2.9000    2.9000    1.8000    1.0000  2.561e-09  3.140e-09  3.140e-09  2.204e-05   25.0000 1
8070    3.0000    2.9000    1.8000    1.0000  2.561e-09  3.053e-09  3.053e-09  2.234e-05   25.0000 1
8071    0.1000    3.0000    1.8000    1.0000  2.516e-09    failed    failed  1.410e-05   25.0000 1
8072    0.2000    3.0000    1.8000    1.0000  2.517e-09    failed    failed  1.440e-05   25.0000 1
8073    0.3000    3.0000    1.8000    1.0000  2.517e-09    failed    failed  1.470e-05   25.0000 1
8074    0.4000    3.0000    1.8000    1.0000  2.517e-09    failed    failed  1.500e-05   25.0000 1
8075    0.5000    3.0000    1.8000    1.0000  2.517e-09    failed    failed  1.530e-05   25.0000 1
8076    0.6000    3.0000    1.8000    1.0000  2.518e-09    failed    failed  1.560e-05   25.0000 1
8077    0.7000    3.0000    1.8000    1.0000  2.518e-09    failed    failed  1.590e-05   25.0000 1
8078    0.8000    3.0000    1.8000    1.0000  2.518e-09    failed    failed  1.620e-05   25.0000 1
8079    0.9000    3.0000    1.8000    1.0000  2.518e-09    failed    failed  1.650e-05   25.0000 1
8080    1.0000    3.0000    1.8000    1.0000  2.518e-09    failed    failed  1.680e-05   25.0000 1
8081    1.1000    3.0000    1.8000    1.0000  2.519e-09    failed    failed  1.710e-05   25.0000 1
8082    1.2000    3.0000    1.8000    1.0000  2.519e-09    failed    failed  1.740e-05   25.0000 1
8083    1.3000    3.0000    1.8000    1.0000  2.519e-09    failed    failed  1.770e-05   25.0000 1
8084    1.4000    3.0000    1.8000    1.0000  2.520e-09    failed    failed  1.800e-05   25.0000 1
8085    1.5000    3.0000    1.8000    1.0000  2.520e-09    failed    failed  1.830e-05   25.0000 1
8086    1.6000    3.0000    1.8000    1.0000  2.520e-09    failed    failed  1.860e-05   25.0000 1
8087    1.7000    3.0000    1.8000    1.0000  2.520e-09    failed    failed  1.890e-05   25.0000 1
8088    1.8000    3.0000    1.8000    1.0000  2.520e-09  8.211e-09  8.211e-09  1.920e-05   25.0000 1
8089    1.9000    3.0000    1.8000    1.0000  2.520e-09  6.392e-09  6.392e-09  1.950e-05   25.0000 1
8090    2.0000    3.0000    1.8000    1.0000  2.521e-09  5.438e-09  5.438e-09  1.980e-05   25.0000 1
8091    2.1000    3.0000    1.8000    1.0000  2.521e-09  4.834e-09  4.834e-09  2.010e-05   25.0000 1
8092    2.2000    3.0000    1.8000    1.0000  2.521e-09  4.413e-09  4.413e-09  2.040e-05   25.0000 1
8093    2.3000    3.0000    1.8000    1.0000  2.521e-09  4.096e-09  4.096e-09  2.070e-05   25.0000 1
8094    2.4000    3.0000    1.8000    1.0000  2.522e-09  3.852e-09  3.852e-09  2.100e-05   25.0000 1
8095    2.5000    3.0000    1.8000    1.0000  2.522e-09  3.653e-09  3.653e-09  2.130e-05   25.0000 1
8096    2.6000    3.0000    1.8000    1.0000  2.522e-09  3.491e-09  3.491e-09  2.160e-05   25.0000 1
8097    2.7000    3.0000    1.8000    1.0000  2.522e-09  3.356e-09  3.356e-09  2.190e-05   25.0000 1
8098    2.8000    3.0000    1.8000    1.0000  2.522e-09  3.240e-09  3.240e-09  2.220e-05   25.0000 1
8099    2.9000    3.0000    1.8000    1.0000  2.522e-09  3.139e-09  3.139e-09  2.250e-05   25.0000 1
8100    3.0000    3.0000    1.8000    1.0000  2.523e-09  3.053e-09  3.053e-09  2.280e-05   25.0000 1
8101    0.1000    0.1000    1.9000    1.0000    failed  9.032e-10    failed  7.800e-07   25.0000 1
8102    0.2000    0.1000    1.9000    1.0000    failed  6.128e-10    failed  1.080e-06   25.0000 1
8103    0.3000    0.1000    1.9000    1.0000    failed  4.928e-10    failed  1.380e-06   25.0000 1
8104    0.4000    0.1000    1.9000    1.0000    failed  4.175e-10    failed  1.680e-06   25.0000 1
8105    0.5000    0.1000    1.9000    1.0000    failed  3.663e-10    failed  1.980e-06   25.0000 1
8106    0.6000    0.1000    1.9000    1.0000    failed  3.301e-10    failed  2.280e-06   25.0000 1
8107    0.7000    0.1000    1.9000    1.0000    failed  3.012e-10    failed  2.580e-06   25.0000 1
8108    0.8000    0.1000    1.9000    1.0000    failed  2.764e-10    failed  2.880e-06   25.0000 1
8109    0.9000    0.1000    1.9000    1.0000    failed  2.574e-10    failed  3.180e-06   25.0000 1
8110    1.0000    0.1000    1.9000    1.0000    failed  2.417e-10    failed  3.480e-06   25.0000 1
8111    1.1000    0.1000    1.9000    1.0000    failed  2.271e-10    failed  3.780e-06   25.0000 1
8112    1.2000    0.1000    1.9000    1.0000    failed  2.157e-10    failed  4.080e-06   25.0000 1
8113    1.3000    0.1000    1.9000    1.0000    failed  2.075e-10    failed  4.380e-06   25.0000 1
8114    1.4000    0.1000    1.9000    1.0000    failed  1.995e-10    failed  4.680e-06   25.0000 1
8115    1.5000    0.1000    1.9000    1.0000    failed  1.912e-10    failed  4.980e-06   25.0000 1
8116    1.6000    0.1000    1.9000    1.0000    failed  1.850e-10    failed  5.280e-06   25.0000 1
8117    1.7000    0.1000    1.9000    1.0000    failed  1.795e-10    failed  5.580e-06   25.0000 1
8118    1.8000    0.1000    1.9000    1.0000    failed  1.759e-10    failed  5.880e-06   25.0000 1
8119    1.9000    0.1000    1.9000    1.0000    failed  1.708e-10    failed  6.180e-06   25.0000 1
8120    2.0000    0.1000    1.9000    1.0000    failed  1.668e-10    failed  6.480e-06   25.0000 1
8121    2.1000    0.1000    1.9000    1.0000    failed  1.620e-10    failed  6.780e-06   25.0000 1
8122    2.2000    0.1000    1.9000    1.0000    failed  1.600e-10    failed  7.080e-06   25.0000 1
8123    2.3000    0.1000    1.9000    1.0000    failed  1.572e-10    failed  7.380e-06   25.0000 1
8124    2.4000    0.1000    1.9000    1.0000    failed  1.546e-10    failed  7.680e-06   25.0000 1
8125    2.5000    0.1000    1.9000    1.0000    failed  1.522e-10    failed  7.980e-06   25.0000 1
8126    2.6000    0.1000    1.9000    1.0000    failed  1.500e-10    failed  8.280e-06   25.0000 1
8127    2.7000    0.1000    1.9000    1.0000    failed  1.480e-10    failed  8.580e-06   25.0000 1
8128    2.8000    0.1000    1.9000    1.0000    failed  1.462e-10    failed  8.880e-06   25.0000 1
8129    2.9000    0.1000    1.9000    1.0000    failed  1.445e-10    failed  9.180e-06   25.0000 1
8130    3.0000    0.1000    1.9000    1.0000    failed  1.429e-10    failed  9.480e-06   25.0000 1
8131    0.1000    0.2000    1.9000    1.0000    failed    failed    failed  1.260e-06   25.0000 1
8132    0.2000    0.2000    1.9000    1.0000    failed    failed    failed  1.560e-06   25.0000 1
8133    0.3000    0.2000    1.9000    1.0000    failed    failed    failed  1.860e-06   25.0000 1
8134    0.4000    0.2000    1.9000    1.0000    failed    failed    failed  2.160e-06   25.0000 1
8135    0.5000    0.2000    1.9000    1.0000    failed    failed    failed  2.460e-06   25.0000 1
8136    0.6000    0.2000    1.9000    1.0000    failed    failed    failed  2.760e-06   25.0000 1
8137    0.7000    0.2000    1.9000    1.0000    failed    failed    failed  3.060e-06   25.0000 1
8138    0.8000    0.2000    1.9000    1.0000    failed    failed    failed  3.360e-06   25.0000 1
8139    0.9000    0.2000    1.9000    1.0000    failed    failed    failed  3.660e-06   25.0000 1
8140    1.0000    0.2000    1.9000    1.0000    failed    failed    failed  3.960e-06   25.0000 1
8141    1.1000    0.2000    1.9000    1.0000    failed    failed    failed  4.260e-06   25.0000 1
8142    1.2000    0.2000    1.9000    1.0000    failed    failed    failed  4.560e-06   25.0000 1
8143    1.3000    0.2000    1.9000    1.0000    failed    failed    failed  4.860e-06   25.0000 1
8144    1.4000    0.2000    1.9000    1.0000    failed    failed    failed  5.160e-06   25.0000 1
8145    1.5000    0.2000    1.9000    1.0000    failed    failed    failed  5.460e-06   25.0000 1
8146    1.6000    0.2000    1.9000    1.0000    failed    failed    failed  5.760e-06   25.0000 1
8147    1.7000    0.2000    1.9000    1.0000    failed    failed    failed  6.060e-06   25.0000 1
8148    1.8000    0.2000    1.9000    1.0000    failed  8.277e-09    failed  6.360e-06   25.0000 1
8149    1.9000    0.2000    1.9000    1.0000    failed  6.484e-09    failed  6.660e-06   25.0000 1
8150    2.0000    0.2000    1.9000    1.0000    failed  5.526e-09    failed  6.960e-06   25.0000 1
8151    2.1000    0.2000    1.9000    1.0000    failed  4.917e-09    failed  7.260e-06   25.0000 1
8152    2.2000    0.2000    1.9000    1.0000    failed  4.487e-09    failed  7.560e-06   25.0000 1
8153    2.3000    0.2000    1.9000    1.0000    failed  4.165e-09    failed  7.860e-06   25.0000 1
8154    2.4000    0.2000    1.9000    1.0000    failed  3.913e-09    failed  8.160e-06   25.0000 1
8155    2.5000    0.2000    1.9000    1.0000    failed  3.710e-09    failed  8.460e-06   25.0000 1
8156    2.6000    0.2000    1.9000    1.0000    failed  3.542e-09    failed  8.760e-06   25.0000 1
8157    2.7000    0.2000    1.9000    1.0000    failed  3.402e-09    failed  9.060e-06   25.0000 1
8158    2.8000    0.2000    1.9000    1.0000    failed  3.281e-09    failed  9.360e-06   25.0000 1
8159    2.9000    0.2000    1.9000    1.0000    failed  3.178e-09    failed  9.660e-06   25.0000 1
8160    3.0000    0.2000    1.9000    1.0000    failed  3.087e-09    failed  9.960e-06   25.0000 1
8161    0.1000    0.3000    1.9000    1.0000    failed    failed    failed  1.740e-06   25.0000 1
8162    0.2000    0.3000    1.9000    1.0000    failed    failed    failed  2.040e-06   25.0000 1
8163    0.3000    0.3000    1.9000    1.0000    failed    failed    failed  2.340e-06   25.0000 1
8164    0.4000    0.3000    1.9000    1.0000    failed    failed    failed  2.640e-06   25.0000 1
8165    0.5000    0.3000    1.9000    1.0000    failed    failed    failed  2.940e-06   25.0000 1
8166    0.6000    0.3000    1.9000    1.0000    failed    failed    failed  3.240e-06   25.0000 1
8167    0.7000    0.3000    1.9000    1.0000    failed    failed    failed  3.540e-06   25.0000 1
8168    0.8000    0.3000    1.9000    1.0000    failed    failed    failed  3.840e-06   25.0000 1
8169    0.9000    0.3000    1.9000    1.0000    failed    failed    failed  4.140e-06   25.0000 1
8170    1.0000    0.3000    1.9000    1.0000    failed    failed    failed  4.440e-06   25.0000 1
8171    1.1000    0.3000    1.9000    1.0000    failed    failed    failed  4.740e-06   25.0000 1
8172    1.2000    0.3000    1.9000    1.0000    failed    failed    failed  5.040e-06   25.0000 1
8173    1.3000    0.3000    1.9000    1.0000    failed    failed    failed  5.340e-06   25.0000 1
8174    1.4000    0.3000    1.9000    1.0000    failed    failed    failed  5.640e-06   25.0000 1
8175    1.5000    0.3000    1.9000    1.0000    failed    failed    failed  5.940e-06   25.0000 1
8176    1.6000    0.3000    1.9000    1.0000    failed    failed    failed  6.240e-06   25.0000 1
8177    1.7000    0.3000    1.9000    1.0000    failed    failed    failed  6.540e-06   25.0000 1
8178    1.8000    0.3000    1.9000    1.0000    failed  8.279e-09    failed  6.840e-06   25.0000 1
8179    1.9000    0.3000    1.9000    1.0000    failed  6.483e-09    failed  7.140e-06   25.0000 1
8180    2.0000    0.3000    1.9000    1.0000    failed  5.528e-09    failed  7.440e-06   25.0000 1
8181    2.1000    0.3000    1.9000    1.0000    failed  4.919e-09    failed  7.740e-06   25.0000 1
8182    2.2000    0.3000    1.9000    1.0000    failed  4.489e-09    failed  8.040e-06   25.0000 1
8183    2.3000    0.3000    1.9000    1.0000    failed  4.167e-09    failed  8.340e-06   25.0000 1
8184    2.4000    0.3000    1.9000    1.0000    failed  3.915e-09    failed  8.640e-06   25.0000 1
8185    2.5000    0.3000    1.9000    1.0000    failed  3.712e-09    failed  8.940e-06   25.0000 1
8186    2.6000    0.3000    1.9000    1.0000    failed  3.544e-09    failed  9.240e-06   25.0000 1
8187    2.7000    0.3000    1.9000    1.0000    failed  3.403e-09    failed  9.540e-06   25.0000 1
8188    2.8000    0.3000    1.9000    1.0000    failed  3.281e-09    failed  9.840e-06   25.0000 1
8189    2.9000    0.3000    1.9000    1.0000    failed  3.179e-09    failed  1.014e-05   25.0000 1
8190    3.0000    0.3000    1.9000    1.0000    failed  3.088e-09    failed  1.044e-05   25.0000 1
8191    0.1000    0.4000    1.9000    1.0000    failed    failed    failed  2.220e-06   25.0000 1
8192    0.2000    0.4000    1.9000    1.0000    failed    failed    failed  2.520e-06   25.0000 1
8193    0.3000    0.4000    1.9000    1.0000    failed    failed    failed  2.820e-06   25.0000 1
8194    0.4000    0.4000    1.9000    1.0000    failed    failed    failed  3.120e-06   25.0000 1
8195    0.5000    0.4000    1.9000    1.0000    failed    failed    failed  3.420e-06   25.0000 1
8196    0.6000    0.4000    1.9000    1.0000    failed    failed    failed  3.720e-06   25.0000 1
8197    0.7000    0.4000    1.9000    1.0000    failed    failed    failed  4.020e-06   25.0000 1
8198    0.8000    0.4000    1.9000    1.0000    failed    failed    failed  4.320e-06   25.0000 1
8199    0.9000    0.4000    1.9000    1.0000    failed    failed    failed  4.620e-06   25.0000 1
8200    1.0000    0.4000    1.9000    1.0000    failed    failed    failed  4.920e-06   25.0000 1
8201    1.1000    0.4000    1.9000    1.0000    failed    failed    failed  5.220e-06   25.0000 1
8202    1.2000    0.4000    1.9000    1.0000    failed    failed    failed  5.520e-06   25.0000 1
8203    1.3000    0.4000    1.9000    1.0000    failed    failed    failed  5.820e-06   25.0000 1
8204    1.4000    0.4000    1.9000    1.0000    failed    failed    failed  6.120e-06   25.0000 1
8205    1.5000    0.4000    1.9000    1.0000    failed    failed    failed  6.420e-06   25.0000 1
8206    1.6000    0.4000    1.9000    1.0000    failed    failed    failed  6.720e-06   25.0000 1
8207    1.7000    0.4000    1.9000    1.0000    failed    failed    failed  7.020e-06   25.0000 1
8208    1.8000    0.4000    1.9000    1.0000    failed  8.283e-09    failed  7.320e-06   25.0000 1
8209    1.9000    0.4000    1.9000    1.0000    failed  6.486e-09    failed  7.620e-06   25.0000 1
8210    2.0000    0.4000    1.9000    1.0000    failed  5.532e-09    failed  7.920e-06   25.0000 1
8211    2.1000    0.4000    1.9000    1.0000    failed  4.921e-09    failed  8.220e-06   25.0000 1
8212    2.2000    0.4000    1.9000    1.0000    failed  4.490e-09    failed  8.520e-06   25.0000 1
8213    2.3000    0.4000    1.9000    1.0000    failed  4.168e-09    failed  8.820e-06   25.0000 1
8214    2.4000    0.4000    1.9000    1.0000    failed  3.915e-09    failed  9.120e-06   25.0000 1
8215    2.5000    0.4000    1.9000    1.0000    failed  3.711e-09    failed  9.420e-06   25.0000 1
8216    2.6000    0.4000    1.9000    1.0000    failed  3.545e-09    failed  9.720e-06   25.0000 1
8217    2.7000    0.4000    1.9000    1.0000    failed  3.403e-09    failed  1.002e-05   25.0000 1
8218    2.8000    0.4000    1.9000    1.0000    failed  3.285e-09    failed  1.032e-05   25.0000 1
8219    2.9000    0.4000    1.9000    1.0000    failed  3.180e-09    failed  1.062e-05   25.0000 1
8220    3.0000    0.4000    1.9000    1.0000    failed  3.089e-09    failed  1.092e-05   25.0000 1
8221    0.1000    0.5000    1.9000    1.0000    failed    failed    failed  2.700e-06   25.0000 1
8222    0.2000    0.5000    1.9000    1.0000    failed    failed    failed  3.000e-06   25.0000 1
8223    0.3000    0.5000    1.9000    1.0000    failed    failed    failed  3.300e-06   25.0000 1
8224    0.4000    0.5000    1.9000    1.0000    failed    failed    failed  3.600e-06   25.0000 1
8225    0.5000    0.5000    1.9000    1.0000    failed    failed    failed  3.900e-06   25.0000 1
8226    0.6000    0.5000    1.9000    1.0000    failed    failed    failed  4.200e-06   25.0000 1
8227    0.7000    0.5000    1.9000    1.0000    failed    failed    failed  4.500e-06   25.0000 1
8228    0.8000    0.5000    1.9000    1.0000    failed    failed    failed  4.800e-06   25.0000 1
8229    0.9000    0.5000    1.9000    1.0000    failed    failed    failed  5.100e-06   25.0000 1
8230    1.0000    0.5000    1.9000    1.0000    failed    failed    failed  5.400e-06   25.0000 1
8231    1.1000    0.5000    1.9000    1.0000    failed    failed    failed  5.700e-06   25.0000 1
8232    1.2000    0.5000    1.9000    1.0000    failed    failed    failed  6.000e-06   25.0000 1
8233    1.3000    0.5000    1.9000    1.0000    failed    failed    failed  6.300e-06   25.0000 1
8234    1.4000    0.5000    1.9000    1.0000    failed    failed    failed  6.600e-06   25.0000 1
8235    1.5000    0.5000    1.9000    1.0000    failed    failed    failed  6.900e-06   25.0000 1
8236    1.6000    0.5000    1.9000    1.0000    failed    failed    failed  7.200e-06   25.0000 1
8237    1.7000    0.5000    1.9000    1.0000    failed    failed    failed  7.500e-06   25.0000 1
8238    1.8000    0.5000    1.9000    1.0000    failed  8.287e-09    failed  7.800e-06   25.0000 1
8239    1.9000    0.5000    1.9000    1.0000    failed  6.483e-09    failed  8.100e-06   25.0000 1
8240    2.0000    0.5000    1.9000    1.0000    failed  5.532e-09    failed  8.400e-06   25.0000 1
8241    2.1000    0.5000    1.9000    1.0000    failed  4.922e-09    failed  8.700e-06   25.0000 1
8242    2.2000    0.5000    1.9000    1.0000    failed  4.491e-09    failed  9.000e-06   25.0000 1
8243    2.3000    0.5000    1.9000    1.0000    failed  4.167e-09    failed  9.300e-06   25.0000 1
8244    2.4000    0.5000    1.9000    1.0000    failed  3.916e-09    failed  9.600e-06   25.0000 1
8245    2.5000    0.5000    1.9000    1.0000    failed  3.713e-09    failed  9.900e-06   25.0000 1
8246    2.6000    0.5000    1.9000    1.0000    failed  3.546e-09    failed  1.020e-05   25.0000 1
8247    2.7000    0.5000    1.9000    1.0000    failed  3.405e-09    failed  1.050e-05   25.0000 1
8248    2.8000    0.5000    1.9000    1.0000    failed  3.285e-09    failed  1.080e-05   25.0000 1
8249    2.9000    0.5000    1.9000    1.0000    failed  3.181e-09    failed  1.110e-05   25.0000 1
8250    3.0000    0.5000    1.9000    1.0000    failed  3.089e-09    failed  1.140e-05   25.0000 1
8251    0.1000    0.6000    1.9000    1.0000    failed    failed    failed  3.180e-06   25.0000 1
8252    0.2000    0.6000    1.9000    1.0000    failed    failed    failed  3.480e-06   25.0000 1
8253    0.3000    0.6000    1.9000    1.0000    failed    failed    failed  3.780e-06   25.0000 1
8254    0.4000    0.6000    1.9000    1.0000    failed    failed    failed  4.080e-06   25.0000 1
8255    0.5000    0.6000    1.9000    1.0000    failed    failed    failed  4.380e-06   25.0000 1
8256    0.6000    0.6000    1.9000    1.0000    failed    failed    failed  4.680e-06   25.0000 1
8257    0.7000    0.6000    1.9000    1.0000    failed    failed    failed  4.980e-06   25.0000 1
8258    0.8000    0.6000    1.9000    1.0000    failed    failed    failed  5.280e-06   25.0000 1
8259    0.9000    0.6000    1.9000    1.0000    failed    failed    failed  5.580e-06   25.0000 1
8260    1.0000    0.6000    1.9000    1.0000    failed    failed    failed  5.880e-06   25.0000 1
8261    1.1000    0.6000    1.9000    1.0000    failed    failed    failed  6.180e-06   25.0000 1
8262    1.2000    0.6000    1.9000    1.0000    failed    failed    failed  6.480e-06   25.0000 1
8263    1.3000    0.6000    1.9000    1.0000    failed    failed    failed  6.780e-06   25.0000 1
8264    1.4000    0.6000    1.9000    1.0000    failed    failed    failed  7.080e-06   25.0000 1
8265    1.5000    0.6000    1.9000    1.0000    failed    failed    failed  7.380e-06   25.0000 1
8266    1.6000    0.6000    1.9000    1.0000    failed    failed    failed  7.680e-06   25.0000 1
8267    1.7000    0.6000    1.9000    1.0000    failed    failed    failed  7.980e-06   25.0000 1
8268    1.8000    0.6000    1.9000    1.0000    failed  8.287e-09    failed  8.280e-06   25.0000 1
8269    1.9000    0.6000    1.9000    1.0000    failed  6.490e-09    failed  8.580e-06   25.0000 1
8270    2.0000    0.6000    1.9000    1.0000    failed  5.533e-09    failed  8.880e-06   25.0000 1
