Using: /packages/synopsys/hspice/I-2013.12-SP1-1/hspice/linux/hspice al_sp.sp
 ****** HSPICE -- I-2013.12-SP1-1 32-BIT (Mar 31 2014) RHEL32 ******            
  Copyright (C) 2014 Synopsys, Inc. All Rights Reserved.                        
  Unpublished-rights reserved under US copyright laws.
  This program is protected by law and is subject to the
  terms and conditions of the license agreement from Synopsys.
  Use of this program is your acceptance to be bound by the
  license agreement. HSPICE is the trademark of Synopsys, Inc.
  Input File: al_sp.sp                                                          
  Command line options: al_sp.sp
 lic:  
 lic: FLEXlm: v10.9.8 
 lic: USER:   engr852-63           HOSTNAME: hafez.sfsu.edu 
 lic: HOSTID: 00123f3584a1         PID:      29445 
 lic: Using FLEXlm license file: 
 lic: /packages/synopsys/license/synopsys.lic 
 lic: Checkout 1 hspice 
 lic: License/Maintenance for hspice will expire on 21-oct-2017/2016.06 
 lic: 2(in_use)/50(total) FLOATING license(s) on SERVER /packages/synopsys/license/synopsys.lic 
 lic:   
 Init: read install configuration file: /packages/synopsys/hspice/I-2013.12-SP1-1/hspice/meta.cfg


*pvaI* current limit stacksize=10485760, set new limit stacksize=62914560
 --------------------------------------------------------
|                                                        |
|          Synopsys Unified Verilog-A (pVA v3.0)         |
|                                                        |
|              Machine Name: hafez.sfsu.edu              |
| Copyright (c) 2013 Synopsys Inc., All Rights Reserved. |
|                                                        |
 --------------------------------------------------------

libepva built by pvamgr synmake_pva_build  on Fri Mar 28 20:06:12 PDT 2014
HSP_HOME:   /packages/synopsys/hspice/I-2013.12-SP1-1/hspice
HSP_ARCH:   linux
HSP_GCC :   /packages/synopsys/hspice/I-2013.12-SP1-1/hspice/GNU/rhel/gcc-4.7.2/bin/gcc -m32 
HSP_GCC_VER:   4.7.2
Working-Dir: /courses/engr852/engr852-63/labwork
Args:        -p hsp -t spi -f al_sp.pvadir/pvaHDL.lis -o al_sp.pvadir 

### optimize mode ###
Args: pva -p hsp -t spi -f al_sp.pvadir/pvaHDL.lis -o al_sp.pvadir

Begin of pVA compiling on Tue Jun 20 10:05:52 2017	GTM/In-use: 0.1250/0.1166 MB

Parsing 'stt.va'
Parsing include file '/packages/synopsys/hspice/I-2013.12-SP1-1/hspice/include/disciplines.vams'
Parsing include file '/packages/synopsys/hspice/I-2013.12-SP1-1/hspice/include/constants.vams'

End of pVA compiling on Tue Jun 20 10:05:52 2017	GTM/In-use: 0.2500/0.2083 MB


End of build pVA DB on Tue Jun 20 10:05:52 2017	GTM/In-use: 3.1250/3.1025 MB


al_sp.pvadir/pvaRTL_linux.so is reused

End of pVA elaboration on Tue Jun 20 10:05:52 2017	GTM/In-use: 3.2500/3.1667 MB

 scientific notation:
 a=10**-18  f=10**-15  p=10**-12  n=10**-9  u=10**-6
 m=10**-3   k=10**3    x=10**6    g=10**9 
 Loading pVA library al_sp.pvadir/pvaRTL_linux.so...
1****** HSPICE -- I-2013.12-SP1-1 32-BIT (Mar 31 2014) RHEL32 ******            
 ******  
 .temp 110

 ****** circuit name directory
 circuit number to circuit name directory
   number circuitname                     definition         multiplier
        0 main circuit
        1 xm36.                           n105               1.00 
        2 xm33.                           n105               1.00 
        3 xm15.                           n105               1.00 
        4 xm29.                           n105               1.00 
        5 xm9.                            n105               1.00 
        6 xm5.                            n105               1.00 
        7 xm3.                            n105               1.00 
        8 xm0.                            n105               1.00 
        9 xm35.                           p105               1.00 
       10 xm32.                           p105               1.00 
       11 xm30.                           p105               1.00 
       12 xm8.                            p105               1.00 
       13 xm7.                            p105               1.00 
       14 xm6.                            p105               1.00 
       15 xm2.                            p105               1.00 
       16 xm4.                            p105               1.00 
       17 xm1.                            p105               1.00 
       18 xi47.                           nor2               1.00 
       19 xi39.                           nand2              1.00 
       20 xi38.                           nand2              1.00 
       21 xi46.                           nand3              1.00 
       22 xi43.                           inverter           1.00 
       23 xi42.                           inverter           1.00 
       24 xi41.                           inverter           1.00 
       25 xi45.                           inverter           1.00 
       26 xi48.                           inverter           1.00 
       27 xi0.                            xor                1.00 
       28 xi2.                            and2               1.00 
       29 xi26.                           mtj                1.00 
       30 xi1.                            mtj                1.00 
       31 xi47.xm18.                      p105               1.00 
       32 xi47.xm16.                      p105               1.00 
       33 xi47.xm19.                      n105               1.00 
       34 xi47.xm17.                      n105               1.00 
       35 xi39.xm6.                       p105               1.00 
       36 xi39.xm18.                      p105               1.00 
       37 xi39.xm16.                      p105               1.00 
       38 xi39.xm0.                       n105               1.00 
       39 xi39.xm19.                      n105               1.00 
       40 xi39.xm17.                      n105               1.00 
       41 xi38.xm6.                       p105               1.00 
       42 xi38.xm18.                      p105               1.00 
       43 xi38.xm16.                      p105               1.00 
       44 xi38.xm0.                       n105               1.00 
       45 xi38.xm19.                      n105               1.00 
       46 xi38.xm17.                      n105               1.00 
       47 xi46.xm18.                      p105               1.00 
       48 xi46.xm16.                      p105               1.00 
       49 xi46.xm19.                      n105               1.00 
       50 xi46.xm17.                      n105               1.00 
       51 xi43.xm0.                       n105               1.00 
       52 xi43.xm1.                       p105               1.00 
       53 xi42.xm0.                       n105               1.00 
       54 xi42.xm1.                       p105               1.00 
       55 xi41.xm0.                       n105               1.00 
       56 xi41.xm1.                       p105               1.00 
       57 xi45.xm0.                       n105               1.00 
       58 xi45.xm1.                       p105               1.00 
       59 xi48.xm0.                       n105               1.00 
       60 xi48.xm1.                       p105               1.00 
       61 xi0.xm1.                        p105               1.00 
       62 xi0.xm0.                        p105               1.00 
       63 xi0.xm22.                       p105               1.00 
       64 xi0.xm21.                       p105               1.00 
       65 xi0.xm3.                        n105               1.00 
       66 xi0.xm2.                        n105               1.00 
       67 xi0.xm24.                       n105               1.00 
       68 xi0.xm23.                       n105               1.00 
       69 xi2.xm1.                        p105               1.00 
       70 xi2.xm18.                       p105               1.00 
       71 xi2.xm16.                       p105               1.00 
       72 xi2.xm19.                       n105               1.00 
       73 xi2.xm17.                       n105               1.00 
       74 xi2.xm0.                        n105               1.00 
       75 xi26.xm1.                       hys(va)            1.00 
       76 xi26.xm2.                       ani                1.00 
       77 xi26.xc1.                       caps1(va)          1.00 
       78 xi26.xrout.                     vcr0(va)           1.00 
       79 xi26.xrwrite.                   vcr(va)            1.00 
       80 xi1.xm1.                        hys(va)            1.00 
       81 xi1.xm2.                        ani                1.00 
       82 xi1.xc1.                        caps1(va)          1.00 
       83 xi1.xrout.                      vcr0(va)           1.00 
       84 xi1.xrwrite.                    vcr(va)            1.00 


 circuit parameter definitions
  parameter          =  value 

     0:dcgso_n18_fc                                            =   0.           
     0:du0_n18_fc                                              =   0.           
     0:dcgdo_n18_fc                                            =   0.           
     0:daigsd_n18_fc                                           =   0.           
     0:dcjswgs_n18_fc                                          =   0.           
     0:dcjswgd_n18_fc                                          =   0.           
     0:drdsw_n18_fc                                            =   0.           
     0:dcjs_n18_fc                                             =   0.           
     0:dvth0_n18_fc                                            =   0.           
     0:dcjswd_n18_fc                                           =   0.           
     0:dcgdl_n18_fc                                            =   0.           
     0:dlvth0_n18_fc                                           =   0.           
     0:dcgsl_n18_fc                                            =   0.           
     0:dcjd_n18_fc                                             =   0.           
     0:dxw_n18_fc                                              =   0.           
     0:dtoxe_n18_fc                                            =   0.           
     0:dpvth0_n18_fc                                           =   0.           
     0:dxl_n18_fc                                              =   0.           
     0:dcjsws_n18_fc                                           =   0.           
     0:daigc_n18_fc                                            =   0.           
     0:dcgso_p18_fc                                            =   0.           
     0:du0_p18_fc                                              =   0.           
     0:dcgdo_p18_fc                                            =   0.           
     0:daigsd_p18_fc                                           =   0.           
     0:dcjswgs_p18_fc                                          =   0.           
     0:dcjswgd_p18_fc                                          =   0.           
     0:drdsw_p18_fc                                            =   0.           
     0:dcjs_p18_fc                                             =   0.           
     0:dvth0_p18_fc                                            =   0.           
     0:dcjswd_p18_fc                                           =   0.           
     0:dcgdl_p18_fc                                            =   0.           
     0:dlvth0_p18_fc                                           =   0.           
     0:dcgsl_p18_fc                                            =   0.           
     0:dcjd_p18_fc                                             =   0.           
     0:dxw_p18_fc                                              =   0.           
     0:dtoxe_p18_fc                                            =   0.           
     0:dpvth0_p18_fc                                           =   0.           
     0:dxl_p18_fc                                              =   0.           
     0:dcjsws_p18_fc                                           =   0.           
     0:daigc_p18_fc                                            =   0.           
     0:dcgso_n105_hvt_fc                                       =   0.           
     0:du0_n105_hvt_fc                                         =   0.           
     0:dcgdo_n105_hvt_fc                                       =   0.           
     0:daigsd_n105_hvt_fc                                      =   0.           
     0:dcjswgs_n105_hvt_fc                                     =   0.           
     0:dcjswgd_n105_hvt_fc                                     =   0.           
     0:drdsw_n105_hvt_fc                                       =   0.           
     0:dcjs_n105_hvt_fc                                        =   0.           
     0:dvth0_n105_hvt_fc                                       =   0.           
     0:dcjswd_n105_hvt_fc                                      =   0.           
     0:dcgdl_n105_hvt_fc                                       =   0.           
     0:dlvth0_n105_hvt_fc                                      =   0.           
     0:dcgsl_n105_hvt_fc                                       =   0.           
     0:dcjd_n105_hvt_fc                                        =   0.           
     0:dxw_n105_hvt_fc                                         =   0.           
     0:dtoxe_n105_hvt_fc                                       =   0.           
     0:dpvth0_n105_hvt_fc                                      =   0.           
     0:dxl_n105_hvt_fc                                         =   0.           
     0:dcjsws_n105_hvt_fc                                      =   0.           
     0:daigc_n105_hvt_fc                                       =   0.           
     0:dcgso_p105_hvt_fc                                       =   0.           
     0:du0_p105_hvt_fc                                         =   0.           
     0:dcgdo_p105_hvt_fc                                       =   0.           
     0:daigsd_p105_hvt_fc                                      =   0.           
     0:dcjswgs_p105_hvt_fc                                     =   0.           
     0:dcjswgd_p105_hvt_fc                                     =   0.           
     0:drdsw_p105_hvt_fc                                       =   0.           
     0:dcjs_p105_hvt_fc                                        =   0.           
     0:dvth0_p105_hvt_fc                                       =   0.           
     0:dcjswd_p105_hvt_fc                                      =   0.           
     0:dcgdl_p105_hvt_fc                                       =   0.           
     0:dlvth0_p105_hvt_fc                                      =   0.           
     0:dcgsl_p105_hvt_fc                                       =   0.           
     0:dcjd_p105_hvt_fc                                        =   0.           
     0:dxw_p105_hvt_fc                                         =   0.           
     0:dtoxe_p105_hvt_fc                                       =   0.           
     0:dpvth0_p105_hvt_fc                                      =   0.           
     0:dxl_p105_hvt_fc                                         =   0.           
     0:dcjsws_p105_hvt_fc                                      =   0.           
     0:daigc_p105_hvt_fc                                       =   0.           
     0:dcgso_n105_lvt_fc                                       =   0.           
     0:du0_n105_lvt_fc                                         =   0.           
     0:dcgdo_n105_lvt_fc                                       =   0.           
     0:daigsd_n105_lvt_fc                                      =   0.           
     0:dcjswgs_n105_lvt_fc                                     =   0.           
     0:dcjswgd_n105_lvt_fc                                     =   0.           
     0:drdsw_n105_lvt_fc                                       =   0.           
     0:dcjs_n105_lvt_fc                                        =   0.           
     0:dvth0_n105_lvt_fc                                       =   0.           
     0:dcjswd_n105_lvt_fc                                      =   0.           
     0:dcgdl_n105_lvt_fc                                       =   0.           
     0:dlvth0_n105_lvt_fc                                      =   0.           
     0:dcgsl_n105_lvt_fc                                       =   0.           
     0:dcjd_n105_lvt_fc                                        =   0.           
     0:dxw_n105_lvt_fc                                         =   0.           
     0:dtoxe_n105_lvt_fc                                       =   0.           
     0:dpvth0_n105_lvt_fc                                      =   0.           
     0:dxl_n105_lvt_fc                                         =   0.           
     0:dcjsws_n105_lvt_fc                                      =   0.           
     0:daigc_n105_lvt_fc                                       =   0.           
     0:dcgso_p105_lvt_fc                                       =   0.           
     0:du0_p105_lvt_fc                                         =   0.           
     0:dcgdo_p105_lvt_fc                                       =   0.           
     0:daigsd_p105_lvt_fc                                      =   0.           
     0:dcjswgs_p105_lvt_fc                                     =   0.           
     0:dcjswgd_p105_lvt_fc                                     =   0.           
     0:drdsw_p105_lvt_fc                                       =   0.           
     0:dcjs_p105_lvt_fc                                        =   0.           
     0:dvth0_p105_lvt_fc                                       =   0.           
     0:dcjswd_p105_lvt_fc                                      =   0.           
     0:dcgdl_p105_lvt_fc                                       =   0.           
     0:dlvth0_p105_lvt_fc                                      =   0.           
     0:dcgsl_p105_lvt_fc                                       =   0.           
     0:dcjd_p105_lvt_fc                                        =   0.           
     0:dxw_p105_lvt_fc                                         =   0.           
     0:dtoxe_p105_lvt_fc                                       =   0.           
     0:dpvth0_p105_lvt_fc                                      =   0.           
     0:dxl_p105_lvt_fc                                         =   0.           
     0:dcjsws_p105_lvt_fc                                      =   0.           
     0:daigc_p105_lvt_fc                                       =   0.           
     0:dcgso_n105_fc                                           =   0.           
     0:du0_n105_fc                                             =   0.           
     0:dcgdo_n105_fc                                           =   0.           
     0:daigsd_n105_fc                                          =   0.           
     0:dcjswgs_n105_fc                                         =   0.           
     0:dcjswgd_n105_fc                                         =   0.           
     0:drdsw_n105_fc                                           =   0.           
     0:dcjs_n105_fc                                            =   0.           
     0:dvth0_n105_fc                                           =   0.           
     0:dcjswd_n105_fc                                          =   0.           
     0:dcgdl_n105_fc                                           =   0.           
     0:dlvth0_n105_fc                                          =   0.           
     0:dcgsl_n105_fc                                           =   0.           
     0:dcjd_n105_fc                                            =   0.           
     0:dxw_n105_fc                                             =   0.           
     0:dtoxe_n105_fc                                           =   0.           
     0:dpvth0_n105_fc                                          =   0.           
     0:dxl_n105_fc                                             =   0.           
     0:dcjsws_n105_fc                                          =   0.           
     0:daigc_n105_fc                                           =   0.           
     0:dcgso_p105_fc                                           =   0.           
     0:du0_p105_fc                                             =   0.           
     0:dcgdo_p105_fc                                           =   0.           
     0:daigsd_p105_fc                                          =   0.           
     0:dcjswgs_p105_fc                                         =   0.           
     0:dcjswgd_p105_fc                                         =   0.           
     0:drdsw_p105_fc                                           =   0.           
     0:dcjs_p105_fc                                            =   0.           
     0:dvth0_p105_fc                                           =   0.           
     0:dcjswd_p105_fc                                          =   0.           
     0:dcgdl_p105_fc                                           =   0.           
     0:dlvth0_p105_fc                                          =   0.           
     0:dcgsl_p105_fc                                           =   0.           
     0:dcjd_p105_fc                                            =   0.           
     0:dxw_p105_fc                                             =   0.           
     0:dtoxe_p105_fc                                           =   0.           
     0:dpvth0_p105_fc                                          =   0.           
     0:dxl_p105_fc                                             =   0.           
     0:dcjsws_p105_fc                                          =   0.           
     0:daigc_p105_fc                                           =   0.           
     0:n25_vfbo_del                                            =   0.           
     0:n25_cjorsti_del                                         =   0.           
     0:n25_cjorgat_del                                         =   0.           
     0:n25_vfbl_del                                            =   0.           
     0:n25_cjorbot_del                                         =   0.           
     0:n25_cfl_del                                             =   0.           
     0:n25_lvaro_del                                           =   0.           
     0:n25_rsw1_del                                            =   0.           
     0:n25_ctlexp_del                                          =   0.           
     0:n25_iginvlw_del                                         =   0.           
     0:n25_lov_del                                             =   0.           
     0:n25_ctl_del                                             =   0.           
     0:n25_toxo_del                                            =   0.           
     0:n25_vfblw_del                                           =   0.           
     0:n25_igovw_del                                           =   0.           
     0:n25_wvaro_del                                           =   0.           
     0:n25_uo_del                                              =   0.           
     0:n25_cflexp_del                                          =   0.           
     0:p25_vfbo_del                                            =   0.           
     0:p25_cjorsti_del                                         =   0.           
     0:p25_cjorgat_del                                         =   0.           
     0:p25_vfbl_del                                            =   0.           
     0:p25_cjorbot_del                                         =   0.           
     0:p25_cfl_del                                             =   0.           
     0:p25_lvaro_del                                           =   0.           
     0:p25_rsw1_del                                            =   0.           
     0:p25_ctlexp_del                                          =   0.           
     0:p25_iginvlw_del                                         =   0.           
     0:p25_lov_del                                             =   0.           
     0:p25_ctl_del                                             =   0.           
     0:p25_toxo_del                                            =   0.           
     0:p25_vfblw_del                                           =   0.           
     0:p25_igovw_del                                           =   0.           
     0:p25_wvaro_del                                           =   0.           
     0:p25_uo_del                                              =   0.           
     0:p25_cflexp_del                                          =   0.           
     0:shrink_factor                                           = 620.0000m      
     0:sg_comp                                                 =   4.0000n      
     0:eg_comp                                                 =  15.0000n      
     0:dg_comp                                                 =  27.0000n      
     0:fnoicor                                                 =   0.           
     0:gwells                                                  =   1.0000       
     0:gstis                                                   =   1.0000       
     0:fet_cnr_sw                                              =   0.           
     0:cf_global                                               =   1.0000       
     0:pre_layout_sw                                           =   0.           
     0:sigma                                                   =   0.           
     0:cor_acv_uncorr                                          =   0.           
     0:pc_ca_cap                                               =  50.0000p      
     0:cnr_rnd_rss                                             = 300.0000m      
     0:tw_factor                                               =   2.0000       
     0:grm_sti                                                 = 155.0000n      
     0:p_sti                                                   =   0.           
     0:xl_n105_hvt_g                                           =   2.0000n      
     0:xw_n105_hvt_g                                           =   0.           
     0:u0_n105_hvt_g                                           =  30.4000       
     0:rdsw_n105_hvt_g                                         = 340.5310       
     0:vth0_n105_hvt_g                                         = 567.0000m      
     0:cgdl_n105_hvt                                           = 144.3600p      
     0:cgdo_n105_hvt                                           =  96.2600p      
     0:cgsl_n105_hvt                                           = 144.3600p      
     0:cgso_n105_hvt                                           =  96.2600p      
     0:cjd_n105_hvt                                            =   1.3460m      
     0:cjs_n105_hvt                                            =   1.3460m      
     0:cjswd_n105_hvt                                          =  82.5000p      
     0:cjswgd_n105_hvt                                         = 304.0000p      
     0:cjswgs_n105_hvt                                         = 304.0000p      
     0:cjsws_n105_hvt                                          =  82.5000p      
     0:toxe_n105_hvt                                           =   2.3900n      
     0:toxp_n105_hvt                                           =   2.2206n      
     0:dcov_n105_hvt                                           =   0.           
     0:lcov_n105_hvt                                           =   0.           
     0:lint_n105_hvt                                           =   0.           
     0:dlc_n105_hvt                                            =   6.9000n      
     0:xl_p105_hvt_g                                           =   2.0000n      
     0:xw_p105_hvt_g                                           =   0.           
     0:u0_p105_hvt_g                                           =  60.9500       
     0:rdsw_p105_hvt_g                                         = 390.9450       
     0:vth0_p105_hvt_g                                         =-302.0000m      
     0:cgdl_p105_hvt                                           =  65.0000p      
     0:cgdo_p105_hvt                                           = 148.0000p      
     0:cgsl_p105_hvt                                           =  65.0000p      
     0:cgso_p105_hvt                                           = 148.0000p      
     0:cjd_p105_hvt                                            =   1.3460m      
     0:cjs_p105_hvt                                            =   1.3460m      
     0:cjswd_p105_hvt                                          =  65.0000p      
     0:cjswgd_p105_hvt                                         = 299.0000p      
     0:cjswgs_p105_hvt                                         = 299.0000p      
     0:cjsws_p105_hvt                                          =  65.0000p      
     0:toxe_p105_hvt                                           =   2.6200n      
     0:toxp_p105_hvt                                           =   2.2948n      
     0:mulu0_p105_hvt                                          =-106.3050m      
     0:dcov_p105_hvt                                           =   0.           
     0:lcov_p105_hvt                                           =   0.           
     0:lint_p105_hvt                                           =   0.           
     0:dlc_p105_hvt                                            =   7.2555n      
     0:xl_n105_lvt_g                                           =   2.0000n      
     0:xw_n105_lvt_g                                           =   0.           
     0:u0_n105_lvt_g                                           =  30.4000       
     0:rdsw_n105_lvt_g                                         = 340.5310       
     0:vth0_n105_lvt_g                                         = 370.0000m      
     0:cgdl_n105_lvt                                           = 144.3600p      
     0:cgdo_n105_lvt                                           =  96.2600p      
     0:cgsl_n105_lvt                                           = 144.3600p      
     0:cgso_n105_lvt                                           =  96.2600p      
     0:cjd_n105_lvt                                            =   1.3460m      
     0:cjs_n105_lvt                                            =   1.3460m      
     0:cjswd_n105_lvt                                          =  82.5000p      
     0:cjswgd_n105_lvt                                         = 304.0000p      
     0:cjswgs_n105_lvt                                         = 304.0000p      
     0:cjsws_n105_lvt                                          =  82.5000p      
     0:toxe_n105_lvt                                           =   2.3900n      
     0:toxp_n105_lvt                                           =   2.2206n      
     0:dcov_n105_lvt                                           =   0.           
     0:lcov_n105_lvt                                           =   0.           
     0:lint_n105_lvt                                           =   0.           
     0:dlc_n105_lvt                                            =   6.9000n      
     0:xl_p105_lvt_g                                           =   2.0000n      
     0:xw_p105_lvt_g                                           =   0.           
     0:u0_p105_lvt_g                                           =  60.9500       
     0:rdsw_p105_lvt_g                                         = 390.9450       
     0:vth0_p105_lvt_g                                         =-213.0000m      
     0:cgdl_p105_lvt                                           =  65.0000p      
     0:cgdo_p105_lvt                                           = 148.0000p      
     0:cgsl_p105_lvt                                           =  65.0000p      
     0:cgso_p105_lvt                                           = 148.0000p      
     0:cjd_p105_lvt                                            =   1.3460m      
     0:cjs_p105_lvt                                            =   1.3460m      
     0:cjswd_p105_lvt                                          =  65.0000p      
     0:cjswgd_p105_lvt                                         = 299.0000p      
     0:cjswgs_p105_lvt                                         = 299.0000p      
     0:cjsws_p105_lvt                                          =  65.0000p      
     0:toxe_p105_lvt                                           =   2.6200n      
     0:toxp_p105_lvt                                           =   2.2948n      
     0:mulu0_p105_lvt                                          =-106.3050m      
     0:dcov_p105_lvt                                           =   0.           
     0:lcov_p105_lvt                                           =   0.           
     0:lint_p105_lvt                                           =   0.           
     0:dlc_p105_lvt                                            =   7.2555n      
     0:xl_n105_g                                               =   2.0000n      
     0:xw_n105_g                                               =   0.           
     0:u0_n105_g                                               =  30.4000       
     0:rdsw_n105_g                                             = 340.5310       
     0:vth0_n105_g                                             = 442.1600m      
     0:cgdl_n105                                               = 144.3600p      
     0:cgdo_n105                                               =  96.2600p      
     0:cgsl_n105                                               = 144.3600p      
     0:cgso_n105                                               =  96.2600p      
     0:cjd_n105                                                =   1.3460m      
     0:cjs_n105                                                =   1.3460m      
     0:cjswd_n105                                              =  82.5000p      
     0:cjswgd_n105                                             = 304.0000p      
     0:cjswgs_n105                                             = 304.0000p      
     0:cjsws_n105                                              =  82.5000p      
     0:toxe_n105                                               =   2.3900n      
     0:toxp_n105                                               =   2.2206n      
     0:dcov_n105                                               =   0.           
     0:lcov_n105                                               =   0.           
     0:lint_n105                                               =   0.           
     0:dlc_n105                                                =   6.9000n      
     0:xl_p105_g                                               =   2.0000n      
     0:xw_p105_g                                               =   0.           
     0:u0_p105_g                                               =  60.9500       
     0:rdsw_p105_g                                             = 390.9450       
     0:vth0_p105_g                                             =-256.4800m      
     0:cgdl_p105                                               =  65.0000p      
     0:cgdo_p105                                               = 148.0000p      
     0:cgsl_p105                                               =  65.0000p      
     0:cgso_p105                                               = 148.0000p      
     0:cjd_p105                                                =   1.3460m      
     0:cjs_p105                                                =   1.3460m      
     0:cjswd_p105                                              =  65.0000p      
     0:cjswgd_p105                                             = 299.0000p      
     0:cjswgs_p105                                             = 299.0000p      
     0:cjsws_p105                                              =  65.0000p      
     0:toxe_p105                                               =   2.6200n      
     0:toxp_p105                                               =   2.2948n      
     0:mulu0_p105                                              =-106.3050m      
     0:dcov_p105                                               =   0.           
     0:lcov_p105                                               =   0.           
     0:lint_p105                                               =   0.           
     0:dlc_p105                                                =   7.2555n      
     0:xl_n18_g                                                =  -5.0000n      
     0:xw_n18_g                                                =   0.           
     0:u0_n18_g                                                = 809.7000       
     0:rdsw_n18_g                                              = 133.4000       
     0:vth0_n18_g                                              = 497.4000m      
     0:cgdl_n18                                                = 147.1000p      
     0:cgdo_n18                                                = 158.9400p      
     0:cgsl_n18                                                = 147.1000p      
     0:cgso_n18                                                = 158.9400p      
     0:cjd_n18                                                 =   1.9750m      
     0:cjs_n18                                                 =   1.9750m      
     0:cjswd_n18                                               = 102.6000p      
     0:cjswgd_n18                                              = 236.0000p      
     0:cjswgs_n18                                              = 236.0000p      
     0:cjsws_n18                                               = 102.6000p      
     0:toxe_n18                                                =   3.5200n      
     0:toxp_n18                                                =   3.3940n      
     0:mulu0_n18                                               =   0.           
     0:dcov_n18                                                =   0.           
     0:lcov_n18                                                =   0.           
     0:lint_n18                                                =   0.           
     0:dlc_n18                                                 =  15.7500n      
     0:xl_p18_g                                                =  -5.0000n      
     0:xw_p18_g                                                =   0.           
     0:u0_p18_g                                                = 105.2100       
     0:rdsw_p18_g                                              =  40.0000       
     0:vth0_p18_g                                              =-429.9000m      
     0:cgdl_p18                                                = 186.0000p      
     0:cgdo_p18                                                =  40.1300p      
     0:cgsl_p18                                                = 186.0000p      
     0:cgso_p18                                                =  40.1300p      
     0:cjd_p18                                                 =   1.4940m      
     0:cjs_p18                                                 =   1.4940m      
     0:cjswd_p18                                               =  70.9400p      
     0:cjswgd_p18                                              = 275.4000p      
     0:cjswgs_p18                                              = 275.4000p      
     0:cjsws_p18                                               =  70.9400p      
     0:toxe_p18                                                =   3.7400n      
     0:toxp_p18                                                =   3.6300n      
     0:mulu0_p18                                               =   0.           
     0:dcov_p18                                                =   0.           
     0:lcov_p18                                                =   0.           
     0:lint_p18                                                =  -7.0000n      
     0:dlc_p18                                                 =  10.2000n      
     0:mc_sw                                                   =   0.           
     0:cnr_acv_uncorr                                          =   0.           
     0:mc_test1                                                =   0.           
     0:mc2_test1                                               =   0.           
     0:mc_test2                                                =   0.           
     0:mc2_test2                                               =   0.           
     0:mc_test3                                                =   0.           
     0:mc2_test3                                               =   0.           
     0:dcgdl_n105_hvt_skew                                     =   0.           
     0:dcgdo_n105_hvt_skew                                     =   0.           
     0:dcgsl_n105_hvt_skew                                     =   0.           
     0:dcgso_n105_hvt_skew                                     =   0.           
     0:dcjd_n105_hvt_skew                                      =   0.           
     0:dcjs_n105_hvt_skew                                      =   0.           
     0:dcjswd_n105_hvt_skew                                    =   0.           
     0:dcjswgd_n105_hvt_skew                                   =   0.           
     0:dcjswgs_n105_hvt_skew                                   =   0.           
     0:dcjsws_n105_hvt_skew                                    =   0.           
     0:drdsw_n105_hvt_skew                                     =   0.           
     0:dtoxe_n105_hvt_skew                                     =   0.           
     0:du0_n105_hvt_skew                                       =   0.           
     0:dvth0_n105_hvt_skew                                     =   0.           
     0:dxl_n105_hvt_skew                                       =   0.           
     0:dxw_n105_hvt_skew                                       =   0.           
     0:dcgdl_p105_hvt_skew                                     =   0.           
     0:dcgdo_p105_hvt_skew                                     =   0.           
     0:dcgsl_p105_hvt_skew                                     =   0.           
     0:dcgso_p105_hvt_skew                                     =   0.           
     0:dcjd_p105_hvt_skew                                      =   0.           
     0:dcjs_p105_hvt_skew                                      =   0.           
     0:dcjswd_p105_hvt_skew                                    =   0.           
     0:dcjswgd_p105_hvt_skew                                   =   0.           
     0:dcjswgs_p105_hvt_skew                                   =   0.           
     0:dcjsws_p105_hvt_skew                                    =   0.           
     0:drdsw_p105_hvt_skew                                     =   0.           
     0:dtoxe_p105_hvt_skew                                     =   0.           
     0:du0_p105_hvt_skew                                       =   0.           
     0:dvth0_p105_hvt_skew                                     =   0.           
     0:dxl_p105_hvt_skew                                       =   0.           
     0:dxw_p105_hvt_skew                                       =   0.           
     0:dcgdl_n105_lvt_skew                                     =   0.           
     0:dcgdo_n105_lvt_skew                                     =   0.           
     0:dcgsl_n105_lvt_skew                                     =   0.           
     0:dcgso_n105_lvt_skew                                     =   0.           
     0:dcjd_n105_lvt_skew                                      =   0.           
     0:dcjs_n105_lvt_skew                                      =   0.           
     0:dcjswd_n105_lvt_skew                                    =   0.           
     0:dcjswgd_n105_lvt_skew                                   =   0.           
     0:dcjswgs_n105_lvt_skew                                   =   0.           
     0:dcjsws_n105_lvt_skew                                    =   0.           
     0:drdsw_n105_lvt_skew                                     =   0.           
     0:dtoxe_n105_lvt_skew                                     =   0.           
     0:du0_n105_lvt_skew                                       =   0.           
     0:dvth0_n105_lvt_skew                                     =   0.           
     0:dxl_n105_lvt_skew                                       =   0.           
     0:dxw_n105_lvt_skew                                       =   0.           
     0:dcgdl_p105_lvt_skew                                     =   0.           
     0:dcgdo_p105_lvt_skew                                     =   0.           
     0:dcgsl_p105_lvt_skew                                     =   0.           
     0:dcgso_p105_lvt_skew                                     =   0.           
     0:dcjd_p105_lvt_skew                                      =   0.           
     0:dcjs_p105_lvt_skew                                      =   0.           
     0:dcjswd_p105_lvt_skew                                    =   0.           
     0:dcjswgd_p105_lvt_skew                                   =   0.           
     0:dcjswgs_p105_lvt_skew                                   =   0.           
     0:dcjsws_p105_lvt_skew                                    =   0.           
     0:drdsw_p105_lvt_skew                                     =   0.           
     0:dtoxe_p105_lvt_skew                                     =   0.           
     0:du0_p105_lvt_skew                                       =   0.           
     0:dvth0_p105_lvt_skew                                     =   0.           
     0:dxl_p105_lvt_skew                                       =   0.           
     0:dxw_p105_lvt_skew                                       =   0.           
     0:dcgdl_n105_skew                                         =   0.           
     0:dcgdo_n105_skew                                         =   0.           
     0:dcgsl_n105_skew                                         =   0.           
     0:dcgso_n105_skew                                         =   0.           
     0:dcjd_n105_skew                                          =   0.           
     0:dcjs_n105_skew                                          =   0.           
     0:dcjswd_n105_skew                                        =   0.           
     0:dcjswgd_n105_skew                                       =   0.           
     0:dcjswgs_n105_skew                                       =   0.           
     0:dcjsws_n105_skew                                        =   0.           
     0:drdsw_n105_skew                                         =   0.           
     0:dtoxe_n105_skew                                         =   0.           
     0:du0_n105_skew                                           =   0.           
     0:dvth0_n105_skew                                         =   0.           
     0:dxl_n105_skew                                           =   0.           
     0:dxw_n105_skew                                           =   0.           
     0:dcgdl_p105_skew                                         =   0.           
     0:dcgdo_p105_skew                                         =   0.           
     0:dcgsl_p105_skew                                         =   0.           
     0:dcgso_p105_skew                                         =   0.           
     0:dcjd_p105_skew                                          =   0.           
     0:dcjs_p105_skew                                          =   0.           
     0:dcjswd_p105_skew                                        =   0.           
     0:dcjswgd_p105_skew                                       =   0.           
     0:dcjswgs_p105_skew                                       =   0.           
     0:dcjsws_p105_skew                                        =   0.           
     0:drdsw_p105_skew                                         =   0.           
     0:dtoxe_p105_skew                                         =   0.           
     0:du0_p105_skew                                           =   0.           
     0:dvth0_p105_skew                                         =   0.           
     0:dxl_p105_skew                                           =   0.           
     0:dxw_p105_skew                                           =   0.           
     0:dcgdl_n18_skew                                          =   0.           
     0:dcgdo_n18_skew                                          =   0.           
     0:dcgsl_n18_skew                                          =   0.           
     0:dcgso_n18_skew                                          =   0.           
     0:dcjd_n18_skew                                           =   0.           
     0:dcjs_n18_skew                                           =   0.           
     0:dcjswd_n18_skew                                         =   0.           
     0:dcjswgd_n18_skew                                        =   0.           
     0:dcjswgs_n18_skew                                        =   0.           
     0:dcjsws_n18_skew                                         =   0.           
     0:drdsw_n18_skew                                          =   0.           
     0:dtoxe_n18_skew                                          =   0.           
     0:du0_n18_skew                                            =   0.           
     0:dvth0_n18_skew                                          =   0.           
     0:dxl_n18_skew                                            =   0.           
     0:dxw_n18_skew                                            =   0.           
     0:dcgdl_p18_skew                                          =   0.           
     0:dcgdo_p18_skew                                          =   0.           
     0:dcgsl_p18_skew                                          =   0.           
     0:dcgso_p18_skew                                          =   0.           
     0:dcjd_p18_skew                                           =   0.           
     0:dcjs_p18_skew                                           =   0.           
     0:dcjswd_p18_skew                                         =   0.           
     0:dcjswgd_p18_skew                                        =   0.           
     0:dcjswgs_p18_skew                                        =   0.           
     0:dcjsws_p18_skew                                         =   0.           
     0:drdsw_p18_skew                                          =   0.           
     0:dtoxe_p18_skew                                          =   0.           
     0:du0_p18_skew                                            =   0.           
     0:dvth0_p18_skew                                          =   0.           
     0:dxl_p18_skew                                            =   0.           
     0:dxw_p18_skew                                            =   0.           
     0:dvth0_n105_hvt_mc                                       =   0.           
     0:dtoxe_n105_hvt_mc                                       =   0.           
     0:dxl_n105_hvt_mc                                         =   0.           
     0:dxw_n105_hvt_mc                                         =   0.           
     0:du0_n105_hvt_mc                                         =   0.           
     0:drdsw_n105_hvt_mc                                       =   0.           
     0:dcgsl_n105_hvt_mc                                       =   0.           
     0:dcgdl_n105_hvt_mc                                       =   0.           
     0:dcgso_n105_hvt_mc                                       =   0.           
     0:dcgdo_n105_hvt_mc                                       =   0.           
     0:dcjs_n105_hvt_mc                                        =   0.           
     0:dcjd_n105_hvt_mc                                        =   0.           
     0:dcjsws_n105_hvt_mc                                      =   0.           
     0:dcjswd_n105_hvt_mc                                      =   0.           
     0:dcjswgs_n105_hvt_mc                                     =   0.           
     0:dcjswgd_n105_hvt_mc                                     =   0.           
     0:dvth0_p105_hvt_mc                                       =   0.           
     0:dtoxe_p105_hvt_mc                                       =   0.           
     0:dxl_p105_hvt_mc                                         =   0.           
     0:dxw_p105_hvt_mc                                         =   0.           
     0:du0_p105_hvt_mc                                         =   0.           
     0:drdsw_p105_hvt_mc                                       =   0.           
     0:dcgsl_p105_hvt_mc                                       =   0.           
     0:dcgdl_p105_hvt_mc                                       =   0.           
     0:dcgso_p105_hvt_mc                                       =   0.           
     0:dcgdo_p105_hvt_mc                                       =   0.           
     0:dcjs_p105_hvt_mc                                        =   0.           
     0:dcjd_p105_hvt_mc                                        =   0.           
     0:dcjsws_p105_hvt_mc                                      =   0.           
     0:dcjswd_p105_hvt_mc                                      =   0.           
     0:dcjswgs_p105_hvt_mc                                     =   0.           
     0:dcjswgd_p105_hvt_mc                                     =   0.           
     0:dvth0_n105_lvt_mc                                       =   0.           
     0:dtoxe_n105_lvt_mc                                       =   0.           
     0:dxl_n105_lvt_mc                                         =   0.           
     0:dxw_n105_lvt_mc                                         =   0.           
     0:du0_n105_lvt_mc                                         =   0.           
     0:drdsw_n105_lvt_mc                                       =   0.           
     0:dcgsl_n105_lvt_mc                                       =   0.           
     0:dcgdl_n105_lvt_mc                                       =   0.           
     0:dcgso_n105_lvt_mc                                       =   0.           
     0:dcgdo_n105_lvt_mc                                       =   0.           
     0:dcjs_n105_lvt_mc                                        =   0.           
     0:dcjd_n105_lvt_mc                                        =   0.           
     0:dcjsws_n105_lvt_mc                                      =   0.           
     0:dcjswd_n105_lvt_mc                                      =   0.           
     0:dcjswgs_n105_lvt_mc                                     =   0.           
     0:dcjswgd_n105_lvt_mc                                     =   0.           
     0:dvth0_p105_lvt_mc                                       =   0.           
     0:dtoxe_p105_lvt_mc                                       =   0.           
     0:dxl_p105_lvt_mc                                         =   0.           
     0:dxw_p105_lvt_mc                                         =   0.           
     0:du0_p105_lvt_mc                                         =   0.           
     0:drdsw_p105_lvt_mc                                       =   0.           
     0:dcgsl_p105_lvt_mc                                       =   0.           
     0:dcgdl_p105_lvt_mc                                       =   0.           
     0:dcgso_p105_lvt_mc                                       =   0.           
     0:dcgdo_p105_lvt_mc                                       =   0.           
     0:dcjs_p105_lvt_mc                                        =   0.           
     0:dcjd_p105_lvt_mc                                        =   0.           
     0:dcjsws_p105_lvt_mc                                      =   0.           
     0:dcjswd_p105_lvt_mc                                      =   0.           
     0:dcjswgs_p105_lvt_mc                                     =   0.           
     0:dcjswgd_p105_lvt_mc                                     =   0.           
     0:dvth0_n105_mc                                           =   0.           
     0:dtoxe_n105_mc                                           =   0.           
     0:dxl_n105_mc                                             =   0.           
     0:dxw_n105_mc                                             =   0.           
     0:du0_n105_mc                                             =   0.           
     0:drdsw_n105_mc                                           =   0.           
     0:dcgsl_n105_mc                                           =   0.           
     0:dcgdl_n105_mc                                           =   0.           
     0:dcgso_n105_mc                                           =   0.           
     0:dcgdo_n105_mc                                           =   0.           
     0:dcjs_n105_mc                                            =   0.           
     0:dcjd_n105_mc                                            =   0.           
     0:dcjsws_n105_mc                                          =   0.           
     0:dcjswd_n105_mc                                          =   0.           
     0:dcjswgs_n105_mc                                         =   0.           
     0:dcjswgd_n105_mc                                         =   0.           
     0:dvth0_p105_mc                                           =   0.           
     0:dtoxe_p105_mc                                           =   0.           
     0:dxl_p105_mc                                             =   0.           
     0:dxw_p105_mc                                             =   0.           
     0:du0_p105_mc                                             =   0.           
     0:drdsw_p105_mc                                           =   0.           
     0:dcgsl_p105_mc                                           =   0.           
     0:dcgdl_p105_mc                                           =   0.           
     0:dcgso_p105_mc                                           =   0.           
     0:dcgdo_p105_mc                                           =   0.           
     0:dcjs_p105_mc                                            =   0.           
     0:dcjd_p105_mc                                            =   0.           
     0:dcjsws_p105_mc                                          =   0.           
     0:dcjswd_p105_mc                                          =   0.           
     0:dcjswgs_p105_mc                                         =   0.           
     0:dcjswgd_p105_mc                                         =   0.           
     0:dvth0_n18_mc                                            =   0.           
     0:dtoxe_n18_mc                                            =   0.           
     0:dxl_n18_mc                                              =   0.           
     0:dxw_n18_mc                                              =   0.           
     0:du0_n18_mc                                              =   0.           
     0:drdsw_n18_mc                                            =   0.           
     0:dcgsl_n18_mc                                            =   0.           
     0:dcgdl_n18_mc                                            =   0.           
     0:dcgso_n18_mc                                            =   0.           
     0:dcgdo_n18_mc                                            =   0.           
     0:dcjs_n18_mc                                             =   0.           
     0:dcjd_n18_mc                                             =   0.           
     0:dcjsws_n18_mc                                           =   0.           
     0:dcjswd_n18_mc                                           =   0.           
     0:dcjswgs_n18_mc                                          =   0.           
     0:dcjswgd_n18_mc                                          =   0.           
     0:dvth0_p18_mc                                            =   0.           
     0:dtoxe_p18_mc                                            =   0.           
     0:dxl_p18_mc                                              =   0.           
     0:dxw_p18_mc                                              =   0.           
     0:du0_p18_mc                                              =   0.           
     0:drdsw_p18_mc                                            =   0.           
     0:dcgsl_p18_mc                                            =   0.           
     0:dcgdl_p18_mc                                            =   0.           
     0:dcgso_p18_mc                                            =   0.           
     0:dcgdo_p18_mc                                            =   0.           
     0:dcjs_p18_mc                                             =   0.           
     0:dcjd_p18_mc                                             =   0.           
     0:dcjsws_p18_mc                                           =   0.           
     0:dcjswd_p18_mc                                           =   0.           
     0:dcjswgs_p18_mc                                          =   0.           
     0:dcjswgd_p18_mc                                          =   0.           
     0:vdd                                                     =   1.0500       
     0:delay                                                   =   0.           
     0:ptot                                                    =   0.           
     0:ileft                                                   =   0.           
     0:iright                                                  =   0.           
     0:idiff                                                   =   0.           
     0:pdp                                                     =   0.           
     0:wmin                                                    = 100.0000n      
     1:w                                                       = 100.0000n      
     1:l                                                       =  30.0000n      
     1:as                                                      =   0.           
     1:ad                                                      =   0.           
     1:ps                                                      =   0.           
     1:pd                                                      =   0.           
     1:nrd                                                     =   0.           
     1:nrs                                                     =   0.           
     1:dtemp                                                   =   0.           
     1:nf                                                      =   1.0000       
     1:sa                                                      =   0.           
     1:sb                                                      =   0.           
     1:sd                                                      =   0.           
     1:ptwell                                                  =   0.           
     1:par                                                     =   1.0000       
     1:psw_acv_sign                                            =   1.0000       
     1:plnest                                                  =   1.0000       
     1:plorient                                                =   1.0000       
     1:pdevdops                                                =   1.0000       
     1:pdevlgeos                                               =   1.0000       
     1:pdevwgeos                                               =   1.0000       
     1:pld200                                                  =   1.0000       
     1:p_vta                                                   =   0.           
     1:sca                                                     =   0.           
     1:scb                                                     =   0.           
     1:scc                                                     =   0.           
     1:u0_mult                                                 =   1.0000       
     1:pre_layout_local                                        =  -1.0000       
     1:cnr_switch                                              =   0.           
     1:vsat_mult                                               =   1.0000       
     1:cf_cnr_n105                                             =   0.           
     1:l_scale                                                 =  22.6000n      
     1:w_scale                                                 =  62.0000n      
     1:as_scale                                                =   0.           
     1:ad_scale                                                =   0.           
     1:ps_scale                                                =   0.           
     1:pd_scale                                                =   0.           
     1:sa_scale                                                =   0.           
     1:sb_scale                                                =   0.           
     1:sd_scale                                                =   0.           
     1:pre_layout_f                                            =   0.           
     1:u0_factor                                               =   0.           
     1:acv_uncorr                                              =   0.           
     1:xl_n105                                                 =   2.0000n      
     1:xw_n105                                                 =   0.           
     1:u0_n105                                                 =  30.4000       
     1:rdsw_n105                                               = 340.5310       
     1:vth0_n105                                               = 442.1600m      
     1:k2_n105                                                 = -50.1610m      
     1:eta0_n105                                               = 580.7200m      
     1:rgatemod_n105                                           =   0.           
     1:mc_cnr_round                                            =   0.           
     1:mc_cnr_rnd                                              =   0.           
     1:cnr_rnd_skew                                            =   0.           
     1:cf_n1051                                                =   0.           
     1:cf_n105                                                 =   0.           
     1:vsat_n105                                               = 266.0000k      
     1:noia_n105                                               = 3.344e+41      
     1:noib_n105                                               = 2.950e+22      
     1:noic_n105                                               =  81.2500x      
     1:aigc_n105                                               =  11.3180m      
     1:aigsd_n105                                              =   8.7220m      
     1:xrcrg1_n105                                             =  12.0000       
     1:xrcrg2_n105                                             =   1.0000       
     1:xgl_n105                                                =  -2.0000n      
     1:xgw_n105                                                =  40.0000n      
     1:rshg_n105                                               =  11.0000       
     1:lvth0_n105                                              =   0.           
     1:pvth0_n105                                              =   0.           
     1:p_leff                                                  =  24.6000n      
     1:p_weff                                                  =  62.0000n      
     1:nwp_logic                                               =   0.           
     1:sca_f                                                   =   0.           
     1:scb_f                                                   =   0.           
     1:scc_f                                                   =   0.           
     1:kvth0we_total                                           =   1.8113u      
     1:kvth0we_n105                                            =   1.8113u      
     1:sti_logic                                               =   0.           
     1:sa_f                                                    =   0.           
     1:sb_f                                                    =   0.           
     1:sd_f                                                    =   0.           
     3:w                                                       = 100.0000n      
     3:l                                                       =  30.0000n      
     3:as                                                      =   0.           
     3:ad                                                      =   0.           
     3:ps                                                      =   0.           
     3:pd                                                      =   0.           
     3:nrd                                                     =   0.           
     3:nrs                                                     =   0.           
     3:dtemp                                                   =   0.           
     3:nf                                                      =   1.0000       
     3:sa                                                      =   0.           
     3:sb                                                      =   0.           
     3:sd                                                      =   0.           
     3:ptwell                                                  =   0.           
     3:par                                                     =   1.0000       
     3:psw_acv_sign                                            =   1.0000       
     3:plnest                                                  =   1.0000       
     3:plorient                                                =   1.0000       
     3:pdevdops                                                =   1.0000       
     3:pdevlgeos                                               =   1.0000       
     3:pdevwgeos                                               =   1.0000       
     3:pld200                                                  =   1.0000       
     3:p_vta                                                   =   0.           
     3:sca                                                     =   0.           
     3:scb                                                     =   0.           
     3:scc                                                     =   0.           
     3:u0_mult                                                 =   1.0000       
     3:pre_layout_local                                        =  -1.0000       
     3:cnr_switch                                              =   0.           
     3:vsat_mult                                               =   1.0000       
     3:cf_cnr_n105                                             =   0.           
     3:l_scale                                                 =  22.6000n      
     3:w_scale                                                 =  62.0000n      
     3:as_scale                                                =   0.           
     3:ad_scale                                                =   0.           
     3:ps_scale                                                =   0.           
     3:pd_scale                                                =   0.           
     3:sa_scale                                                =   0.           
     3:sb_scale                                                =   0.           
     3:sd_scale                                                =   0.           
     3:pre_layout_f                                            =   0.           
     3:u0_factor                                               =   0.           
     3:acv_uncorr                                              =   0.           
     3:xl_n105                                                 =   2.0000n      
     3:xw_n105                                                 =   0.           
     3:u0_n105                                                 =  30.4000       
     3:rdsw_n105                                               = 340.5310       
     3:vth0_n105                                               = 442.1600m      
     3:k2_n105                                                 = -50.1610m      
     3:eta0_n105                                               = 580.7200m      
     3:rgatemod_n105                                           =   0.           
     3:mc_cnr_round                                            =   0.           
     3:mc_cnr_rnd                                              =   0.           
     3:cnr_rnd_skew                                            =   0.           
     3:cf_n1051                                                =   0.           
     3:cf_n105                                                 =   0.           
     3:vsat_n105                                               = 266.0000k      
     3:noia_n105                                               = 3.344e+41      
     3:noib_n105                                               = 2.950e+22      
     3:noic_n105                                               =  81.2500x      
     3:aigc_n105                                               =  11.3180m      
     3:aigsd_n105                                              =   8.7220m      
     3:xrcrg1_n105                                             =  12.0000       
     3:xrcrg2_n105                                             =   1.0000       
     3:xgl_n105                                                =  -2.0000n      
     3:xgw_n105                                                =  40.0000n      
     3:rshg_n105                                               =  11.0000       
     3:lvth0_n105                                              =   0.           
     3:pvth0_n105                                              =   0.           
     3:p_leff                                                  =  24.6000n      
     3:p_weff                                                  =  62.0000n      
     3:nwp_logic                                               =   0.           
     3:sca_f                                                   =   0.           
     3:scb_f                                                   =   0.           
     3:scc_f                                                   =   0.           
     3:kvth0we_total                                           =   1.8113u      
     3:kvth0we_n105                                            =   1.8113u      
     3:sti_logic                                               =   0.           
     3:sa_f                                                    =   0.           
     3:sb_f                                                    =   0.           
     3:sd_f                                                    =   0.           
     9:w                                                       = 100.0000n      
     9:l                                                       =  30.0000n      
     9:as                                                      =   0.           
     9:ad                                                      =   0.           
     9:ps                                                      =   0.           
     9:pd                                                      =   0.           
     9:nrd                                                     =   0.           
     9:nrs                                                     =   0.           
     9:dtemp                                                   =   0.           
     9:nf                                                      =   1.0000       
     9:sa                                                      =   0.           
     9:sb                                                      =   0.           
     9:sd                                                      =   0.           
     9:ptwell                                                  =   0.           
     9:par                                                     =   1.0000       
     9:psw_acv_sign                                            =   1.0000       
     9:plnest                                                  =   1.0000       
     9:plorient                                                =   1.0000       
     9:pdevdops                                                =   1.0000       
     9:pdevlgeos                                               =   1.0000       
     9:pdevwgeos                                               =   1.0000       
     9:pld200                                                  =   1.0000       
     9:p_vta                                                   =   0.           
     9:sca                                                     =   0.           
     9:scb                                                     =   0.           
     9:scc                                                     =   0.           
     9:u0_mult                                                 =   1.0000       
     9:pre_layout_local                                        =  -1.0000       
     9:cnr_switch                                              =   0.           
     9:vsat_mult                                               =   1.0000       
     9:cf_cnr_p105                                             =   0.           
     9:l_scale                                                 =  22.6000n      
     9:w_scale                                                 =  62.0000n      
     9:as_scale                                                =   0.           
     9:ad_scale                                                =   0.           
     9:ps_scale                                                =   0.           
     9:pd_scale                                                =   0.           
     9:sa_scale                                                =   0.           
     9:sb_scale                                                =   0.           
     9:sd_scale                                                =   0.           
     9:pre_layout_f                                            =   0.           
     9:u0_factor                                               =   0.           
     9:acv_uncorr                                              =   0.           
     9:mc_cnr_round                                            =   0.           
     9:mc_cnr_rnd                                              =   0.           
     9:cnr_rnd_skew                                            =   0.           
     9:p_leff                                                  =  24.6000n      
     9:p_weff                                                  =  62.0000n      
     9:nwp_logic                                               =   0.           
     9:sca_f                                                   =   0.           
     9:scb_f                                                   =   0.           
     9:scc_f                                                   =   0.           
     9:kvth0we_total                                           =  -1.0000u      
     9:sti_logic                                               =   0.           
     9:sa_f                                                    =   0.           
     9:sb_f                                                    =   0.           
     9:sd_f                                                    =   0.           
[...]
 ptot=  51.2687u  from=   0.          to= 200.0000n
 ileft=   4.7018n
 iright=  25.6637u
 idiff=  16.2230u    at=  93.4835n
             from=  93.3000n    to=  93.5000n
 pdp=   1.0303f

          ***** job concluded
 ******  
 .temp 110

 ****** transient analysis tnom=  25.000 temp=  25.000 ******

   *** parameter wmin =    5.8000u       ***

 delay=  20.1050p  targ=  93.3251n   trig=  93.3050n
 ptot=  51.2701u  from=   0.          to= 200.0000n
 ileft=   4.7560n
 iright=  25.6741u
 idiff=  16.2281u    at=  93.4846n
             from=  93.3000n    to=  93.5000n
 pdp=   1.0308f

          ***** job concluded
 ******  
 .temp 110

 ****** transient analysis tnom=  25.000 temp=  25.000 ******

   *** parameter wmin =    5.9000u       ***

 delay=  20.1126p  targ=  93.3251n   trig=  93.3050n
 ptot=  51.2701u  from=   0.          to= 200.0000n
 ileft=   4.8098n
 iright=  25.6840u
 idiff=  16.2330u    at=  93.4856n
             from=  93.3000n    to=  93.5000n
 pdp=   1.0312f

          ***** job concluded
 ******  
 .temp 110

 ****** transient analysis tnom=  25.000 temp=  25.000 ******

   *** parameter wmin =    6.0000u       ***

 delay=  20.1199p  targ=  93.3251n   trig=  93.3050n
 ptot=  51.2713u  from=   0.          to= 200.0000n
 ileft=   4.8635n
 iright=  25.6933u
 idiff=  16.2378u    at=  93.4867n
             from=  93.3000n    to=  93.5000n
 pdp=   1.0316f

          ***** job concluded
 ******  
 .temp 110

 ****** transient analysis tnom=  25.000 temp=  25.000 ******

   *** parameter wmin =    6.1000u       ***

 delay=  20.1279p  targ=  93.3251n   trig=  93.3050n
 ptot=  51.2714u  from=   0.          to= 200.0000n
 ileft=   4.9178n
 iright=  25.7023u
 idiff=  16.2424u    at=  93.4877n
             from=  93.3000n    to=  93.5000n
 pdp=   1.0320f

          ***** job concluded
 ******  
 .temp 110

 ****** transient analysis tnom=  25.000 temp=  25.000 ******

   *** parameter wmin =    6.2000u       ***

 delay=  20.1341p  targ=  93.3251n   trig=  93.3050n
 ptot=  51.2722u  from=   0.          to= 200.0000n
 ileft=   4.9711n
 iright=  25.7108u
 idiff=  16.2469u    at=  93.4890n
             from=  93.3000n    to=  93.5000n
 pdp=   1.0323f

          ***** job concluded
 ******  
 .temp 110

 ****** transient analysis tnom=  25.000 temp=  25.000 ******

   *** parameter wmin =    6.3000u       ***

 delay=  20.1406p  targ=  93.3251n   trig=  93.3050n
 ptot=  51.2729u  from=   0.          to= 200.0000n
 ileft=   5.0249n
 iright=  25.7189u
 idiff=  16.2512u    at=  93.4900n
             from=  93.3000n    to=  93.5000n
 pdp=   1.0327f

          ***** job concluded
 ******  
 .temp 110

 ****** transient analysis tnom=  25.000 temp=  25.000 ******

   *** parameter wmin =    6.4000u       ***

 delay=  20.1465p  targ=  93.3251n   trig=  93.3050n
 ptot=  51.2744u  from=   0.          to= 200.0000n
 ileft=   5.0787n
 iright=  25.7267u
 idiff=  16.2552u    at=  93.4909n
             from=  93.3000n    to=  93.5000n
 pdp=   1.0330f

          ***** job concluded
 ******  
 .temp 110

 ****** transient analysis tnom=  25.000 temp=  25.000 ******

   *** parameter wmin =    6.5000u       ***

 delay=  20.1509p  targ=  93.3252n   trig=  93.3050n
 ptot=  51.2752u  from=   0.          to= 200.0000n
 ileft=   5.1325n
 iright=  25.7341u
 idiff=  16.2591u    at=  93.4919n
             from=  93.3000n    to=  93.5000n
 pdp=   1.0332f

          ***** job concluded
 ******  
 .temp 110

 ****** transient analysis tnom=  25.000 temp=  25.000 ******

   *** parameter wmin =    6.6000u       ***

 delay=  20.2796p  targ=  93.3253n   trig=  93.3050n
 ptot=  51.2755u  from=   0.          to= 200.0000n
 ileft=   5.1855n
 iright=  25.7411u
 idiff=  16.2628u    at=  93.4926n
             from=  93.3000n    to=  93.5000n
 pdp=   1.0398f

          ***** job concluded
 ******  
 .temp 110

 ****** transient analysis tnom=  25.000 temp=  25.000 ******

   *** parameter wmin =    6.7000u       ***

 delay=  20.1616p  targ=  93.3252n   trig=  93.3050n
 ptot=  51.2764u  from=   0.          to= 200.0000n
 ileft=   5.2400n
 iright=  25.7481u
 idiff=  16.2665u    at=  93.4938n
             from=  93.3000n    to=  93.5000n
 pdp=   1.0338f

          ***** job concluded
 ******  
 .temp 110

 ****** transient analysis tnom=  25.000 temp=  25.000 ******

   *** parameter wmin =    6.8000u       ***

 delay=  20.1666p  targ=  93.3252n   trig=  93.3050n
 ptot=  51.2771u  from=   0.          to= 200.0000n
 ileft=   5.2939n
 iright=  25.7546u
 idiff=  16.2700u    at=  93.4948n
             from=  93.3000n    to=  93.5000n
 pdp=   1.0341f

          ***** job concluded
 ******  
 .temp 110

 ****** transient analysis tnom=  25.000 temp=  25.000 ******

   *** parameter wmin =    6.9000u       ***

 delay=  20.1715p  targ=  93.3252n   trig=  93.3050n
 ptot=  51.2775u  from=   0.          to= 200.0000n
 ileft=   5.3476n
 iright=  25.7613u
 idiff=  16.2737u    at=  93.4961n
             from=  93.3000n    to=  93.5000n
 pdp=   1.0343f

          ***** job concluded
 ******  
 .temp 110

 ****** transient analysis tnom=  25.000 temp=  25.000 ******

   *** parameter wmin =    7.0000u       ***

 delay=  20.1763p  targ=  93.3252n   trig=  93.3050n
 ptot=  51.2781u  from=   0.          to= 200.0000n
 ileft=   5.4014n
 iright=  25.7677u
 idiff=  16.2771u    at=  93.4973n
             from=  93.3000n    to=  93.5000n
 pdp=   1.0346f

          ***** job concluded
 ******  
 .temp 110

 ****** transient analysis tnom=  25.000 temp=  25.000 ******

   *** parameter wmin =    7.1000u       ***

 delay=  20.1814p  targ=  93.3252n   trig=  93.3050n
 ptot=  51.2793u  from=   0.          to= 200.0000n
 ileft=   5.4552n
 iright=  25.7735u
 idiff=  16.2802u    at=  93.4982n
             from=  93.3000n    to=  93.5000n
 pdp=   1.0349f

          ***** job concluded
 ******  
 .temp 110

 ****** transient analysis tnom=  25.000 temp=  25.000 ******

   *** parameter wmin =    7.2000u       ***

 delay=  20.2325p  targ=  93.3252n   trig=  93.3050n
 ptot=  51.2800u  from=   0.          to= 200.0000n
 ileft=   5.5083n
 iright=  25.7786u
 idiff=  16.2828u    at=  93.4991n
             from=  93.3000n    to=  93.5000n
 pdp=   1.0375f

          ***** job concluded
 ******  
 .temp 110

 ****** transient analysis tnom=  25.000 temp=  25.000 ******

   *** parameter wmin =    7.3000u       ***

 delay=  20.1900p  targ=  93.3252n   trig=  93.3050n
 ptot=  51.2802u  from=   0.          to= 200.0000n
 ileft=   5.5628n
 iright=  25.7764u
 idiff=  16.2772u    at=  93.5000n
             from=  93.3000n    to=  93.5000n
 pdp=   1.0353f

          ***** job concluded
 ******  
 .temp 110

 ****** transient analysis tnom=  25.000 temp=  25.000 ******

   *** parameter wmin =    7.4000u       ***

 delay=  20.1945p  targ=  93.3252n   trig=  93.3050n
 ptot=  51.2813u  from=   0.          to= 200.0000n
 ileft=   5.6165n
 iright=  25.7878u
 idiff=  16.2869u    at=  93.5000n
             from=  93.3000n    to=  93.5000n
 pdp=   1.0356f

          ***** job concluded
 ******  
 .temp 110

 ****** transient analysis tnom=  25.000 temp=  25.000 ******

   *** parameter wmin =    7.5000u       ***

 delay=  20.1991p  targ=  93.3252n   trig=  93.3050n
 ptot=  51.2818u  from=   0.          to= 200.0000n
 ileft=   5.6703n
 iright=  25.7902u
 idiff=  16.2874u    at=  93.5000n
             from=  93.3000n    to=  93.5000n
 pdp=   1.0358f

          ***** job concluded
 ******  
 .temp 110

 ****** transient analysis tnom=  25.000 temp=  25.000 ******

   *** parameter wmin =    7.6000u       ***

 delay=  20.2032p  targ=  93.3252n   trig=  93.3050n
 ptot=  51.2825u  from=   0.          to= 200.0000n
 ileft=   5.7241n
 iright=  25.7923u
 idiff=  16.2879u    at=  93.5000n
             from=  93.3000n    to=  93.5000n
 pdp=   1.0361f

          ***** job concluded
 ******  
 .temp 110

 ****** transient analysis tnom=  25.000 temp=  25.000 ******

   *** parameter wmin =    7.7000u       ***

 delay=  20.2075p  targ=  93.3252n   trig=  93.3050n
 ptot=  51.2834u  from=   0.          to= 200.0000n
 ileft=   5.7779n
 iright=  25.7942u
 idiff=  16.2881u    at=  93.5000n
             from=  93.3000n    to=  93.5000n
 pdp=   1.0363f

          ***** job concluded
 ******  
 .temp 110

 ****** transient analysis tnom=  25.000 temp=  25.000 ******

   *** parameter wmin =    7.8000u       ***

 delay=  20.2116p  targ=  93.3252n   trig=  93.3050n
 ptot=  51.2840u  from=   0.          to= 200.0000n
 ileft=   5.8316n
 iright=  25.7955u
 idiff=  16.2882u    at=  93.5000n
             from=  93.3000n    to=  93.5000n
 pdp=   1.0365f

          ***** job concluded
 ******  
 .temp 110

 ****** transient analysis tnom=  25.000 temp=  25.000 ******

   *** parameter wmin =    7.9000u       ***

 delay=  20.2165p  targ=  93.3252n   trig=  93.3050n
 ptot=  51.2849u  from=   0.          to= 200.0000n
 ileft=   5.8854n
 iright=  25.7964u
 idiff=  16.2881u    at=  93.5000n
             from=  93.3000n    to=  93.5000n
 pdp=   1.0368f

          ***** job concluded
 ******  
 .temp 110

 ****** transient analysis tnom=  25.000 temp=  25.000 ******

   *** parameter wmin =    8.0000u       ***

 delay=  20.2212p  targ=  93.3252n   trig=  93.3050n
 ptot=  51.2851u  from=   0.          to= 200.0000n
 ileft=   5.9392n
 iright=  25.7971u
 idiff=  16.2879u    at=  93.5000n
             from=  93.3000n    to=  93.5000n
 pdp=   1.0370f

          ***** job concluded
 ******  
 .temp 110

 ****** transient analysis tnom=  25.000 temp=  25.000 ******

   *** parameter wmin =    8.1000u       ***

 delay=  20.2243p  targ=  93.3252n   trig=  93.3050n
 ptot=  51.2861u  from=   0.          to= 200.0000n
 ileft=   5.9933n
 iright=  25.7977u
 idiff=  16.2877u    at=  93.5000n
             from=  93.3000n    to=  93.5000n
 pdp=   1.0372f

          ***** job concluded
 ******  
 .temp 110

 ****** transient analysis tnom=  25.000 temp=  25.000 ******

   *** parameter wmin =    8.2000u       ***

 delay=  20.3472p  targ=  93.3253n   trig=  93.3050n
 ptot=  51.2864u  from=   0.          to= 200.0000n
 ileft=   6.0461n
 iright=  25.7977u
 idiff=  16.2873u    at=  93.5000n
             from=  93.3000n    to=  93.5000n
 pdp=   1.0435f

          ***** job concluded
 ******  
 .temp 110

 ****** transient analysis tnom=  25.000 temp=  25.000 ******

   *** parameter wmin =    8.3000u       ***

 delay=  20.2311p  targ=  93.3252n   trig=  93.3050n
 ptot=  51.2871u  from=   0.          to= 200.0000n
 ileft=   6.1005n
 iright=  25.7979u
 idiff=  16.2869u    at=  93.5000n
             from=  93.3000n    to=  93.5000n
 pdp=   1.0376f

          ***** job concluded
 ******  
 .temp 110

 ****** transient analysis tnom=  25.000 temp=  25.000 ******

   *** parameter wmin =    8.4000u       ***

 delay=  20.2348p  targ=  93.3252n   trig=  93.3050n
 ptot=  51.2883u  from=   0.          to= 200.0000n
 ileft=   6.1542n
 iright=  25.7972u
 idiff=  16.2859u    at=  93.5000n
             from=  93.3000n    to=  93.5000n
 pdp=   1.0378f

          ***** job concluded
 ******  
 .temp 110

 ****** transient analysis tnom=  25.000 temp=  25.000 ******

   *** parameter wmin =    8.5000u       ***

 delay=  20.2387p  targ=  93.3252n   trig=  93.3050n
 ptot=  51.2883u  from=   0.          to= 200.0000n
 ileft=   6.2079n
 iright=  25.7965u
 idiff=  16.2851u    at=  93.5000n
             from=  93.3000n    to=  93.5000n
 pdp=   1.0380f

          ***** job concluded
 ******  
 .temp 110

 ****** transient analysis tnom=  25.000 temp=  25.000 ******

   *** parameter wmin =    8.6000u       ***

 delay=  20.2423p  targ=  93.3252n   trig=  93.3050n
 ptot=  51.2895u  from=   0.          to= 200.0000n
 ileft=   6.2618n
 iright=  25.7956u
 idiff=  16.2842u    at=  93.5000n
             from=  93.3000n    to=  93.5000n
 pdp=   1.0382f

          ***** job concluded
 ******  
 .temp 110

 ****** transient analysis tnom=  25.000 temp=  25.000 ******

   *** parameter wmin =    8.7000u       ***

 delay=  20.2461p  targ=  93.3252n   trig=  93.3050n
 ptot=  51.2902u  from=   0.          to= 200.0000n
 ileft=   6.3155n
 iright=  25.7942u
 idiff=  16.2829u    at=  93.5000n
             from=  93.3000n    to=  93.5000n
 pdp=   1.0384f

          ***** job concluded
 ******  
 .temp 110

 ****** transient analysis tnom=  25.000 temp=  25.000 ******

   *** parameter wmin =    8.8000u       ***

 delay=  20.2499p  targ=  93.3252n   trig=  93.3050n
 ptot=  51.2912u  from=   0.          to= 200.0000n
 ileft=   6.3693n
 iright=  25.7927u
 idiff=  16.2816u    at=  93.5000n
             from=  93.3000n    to=  93.5000n
 pdp=   1.0386f

          ***** job concluded
 ******  
 .temp 110

 ****** transient analysis tnom=  25.000 temp=  25.000 ******

   *** parameter wmin =    8.9000u       ***

 delay=  20.2530p  targ=  93.3253n   trig=  93.3050n
 ptot=  51.2919u  from=   0.          to= 200.0000n
 ileft=   6.4231n
 iright=  25.7918u
 idiff=  16.2819u    at=  93.5000n
             from=  93.3000n    to=  93.5000n
 pdp=   1.0388f

          ***** job concluded
 ******  
 .temp 110

 ****** transient analysis tnom=  25.000 temp=  25.000 ******

   *** parameter wmin =    9.0000u       ***

 delay=  20.2566p  targ=  93.3253n   trig=  93.3050n
 ptot=  51.2928u  from=   0.          to= 200.0000n
 ileft=   6.4768n
 iright=  25.7898u
 idiff=  16.2808u    at=  93.5000n
             from=  93.3000n    to=  93.5000n
 pdp=   1.0390f

          ***** job concluded
 ******  
 .temp 110

 ****** transient analysis tnom=  25.000 temp=  25.000 ******

   *** parameter wmin =    9.1000u       ***

 delay=  20.2598p  targ=  93.3253n   trig=  93.3050n
 ptot=  51.2934u  from=   0.          to= 200.0000n
 ileft=   6.5306n
 iright=  25.7876u
 idiff=  16.2797u    at=  93.5000n
             from=  93.3000n    to=  93.5000n
 pdp=   1.0392f

          ***** job concluded
 ******  
 .temp 110

 ****** transient analysis tnom=  25.000 temp=  25.000 ******

   *** parameter wmin =    9.2000u       ***

 delay=  20.2629p  targ=  93.3253n   trig=  93.3050n
 ptot=  51.2938u  from=   0.          to= 200.0000n
 ileft=   6.5843n
 iright=  25.7851u
 idiff=  16.2782u    at=  93.5000n
             from=  93.3000n    to=  93.5000n
 pdp=   1.0394f

          ***** job concluded
 ******  
 .temp 110

 ****** transient analysis tnom=  25.000 temp=  25.000 ******

   *** parameter wmin =    9.3000u       ***

 delay=  20.2672p  targ=  93.3253n   trig=  93.3050n
 ptot=  51.2946u  from=   0.          to= 200.0000n
 ileft=   6.6381n
 iright=  25.7824u
 idiff=  16.2768u    at=  93.5000n
             from=  93.3000n    to=  93.5000n
 pdp=   1.0396f

          ***** job concluded
 ******  
 .temp 110

 ****** transient analysis tnom=  25.000 temp=  25.000 ******

   *** parameter wmin =    9.4000u       ***

 delay=  20.2696p  targ=  93.3253n   trig=  93.3050n
 ptot=  51.2953u  from=   0.          to= 200.0000n
 ileft=   6.6918n
 iright=  25.7795u
 idiff=  16.2744u    at=  93.5000n
             from=  93.3000n    to=  93.5000n
 pdp=   1.0397f

          ***** job concluded
 ******  
 .temp 110

 ****** transient analysis tnom=  25.000 temp=  25.000 ******

   *** parameter wmin =    9.5000u       ***

 delay=  20.2728p  targ=  93.3253n   trig=  93.3050n
 ptot=  51.2960u  from=   0.          to= 200.0000n
 ileft=   6.7456n
 iright=  25.7764u
 idiff=  16.2725u    at=  93.5000n
             from=  93.3000n    to=  93.5000n
 pdp=   1.0399f

          ***** job concluded
 ******  
 .temp 110

 ****** transient analysis tnom=  25.000 temp=  25.000 ******

   *** parameter wmin =    9.6000u       ***

 delay=  20.2759p  targ=  93.3253n   trig=  93.3050n
 ptot=  51.2966u  from=   0.          to= 200.0000n
 ileft=   6.7993n
 iright=  25.7823u
 idiff=  16.2800u    at=  93.5000n
             from=  93.3000n    to=  93.5000n
 pdp=   1.0401f

          ***** job concluded
 ******  
 .temp 110

 ****** transient analysis tnom=  25.000 temp=  25.000 ******

   *** parameter wmin =    9.7000u       ***

 delay=  20.2795p  targ=  93.3253n   trig=  93.3050n
 ptot=  51.2971u  from=   0.          to= 200.0000n
 ileft=   6.8531n
 iright=  25.7808u
 idiff=  16.2796u    at=  93.5000n
             from=  93.3000n    to=  93.5000n
 pdp=   1.0403f

          ***** job concluded
 ******  
 .temp 110

 ****** transient analysis tnom=  25.000 temp=  25.000 ******

   *** parameter wmin =    9.8000u       ***

 delay=  20.2828p  targ=  93.3253n   trig=  93.3050n
 ptot=  51.2985u  from=   0.          to= 200.0000n
 ileft=   6.9069n
 iright=  25.7764u
 idiff=  16.2780u    at=  93.5000n
             from=  93.3000n    to=  93.5000n
 pdp=   1.0405f

          ***** job concluded
 ******  
 .temp 110

 ****** transient analysis tnom=  25.000 temp=  25.000 ******

   *** parameter wmin =    9.9000u       ***

 delay=  20.2858p  targ=  93.3253n   trig=  93.3050n
 ptot=  51.2992u  from=   0.          to= 200.0000n
 ileft=   6.9606n
 iright=  25.7715u
 idiff=  16.2764u    at=  93.5000n
             from=  93.3000n    to=  93.5000n
 pdp=   1.0406f

          ***** job concluded
 ******  
 .temp 110

 ****** transient analysis tnom=  25.000 temp=  25.000 ******

   *** parameter wmin =   10.0000u       ***

 delay=  20.2882p  targ=  93.3253n   trig=  93.3050n
 ptot=  51.2990u  from=   0.          to= 200.0000n
 ileft=   7.0144n
 iright=  25.7626u
 idiff=  16.2732u    at=  93.5000n
             from=  93.3000n    to=  93.5000n
 pdp=   1.0408f

          ***** job concluded
1****** HSPICE -- I-2013.12-SP1-1 32-BIT (Mar 31 2014) RHEL32 ******            
 ******  
 .temp 110

 ****** job statistics summary tnom=  25.000 temp=  25.000 ******
  
  
 ******  Machine Information  ******
 CPU:
 model name	: Intel(R) Xeon(TM) CPU 2.80GHz
 cpu MHz	: 2793.212
  
 OS:
 Linux version 2.6.18-308.13.1.el5 (mockbuild@builder10.centos.org) (gcc version 4.1.2 20080704 (Red Hat 4.1.2-52)) #1 SMP Tue Aug 21 17:10:18 EDT 2012


  ******  HSPICE Threads Information  ******

  Command Line Threads Count :     1
  Available CPU Count        :     1
  Actual Threads Count       :     1


  ******  Circuit Statistics  ******
  # nodes       =      48 # elements   =      76
  # resistors   =       0 # capacitors =       0 # inductors   =       0
  # mutual_inds =       0 # vccs       =       0 # vcvs        =       0
  # cccs        =       0 # ccvs       =       0 # volt_srcs   =       7
  # curr_srcs   =       0 # diodes     =       0 # bjts        =       0
  # jfets       =       0 # mosfets    =      61 # U elements  =       0
  # T elements  =       0 # W elements =       0 # B elements  =       0
  # S elements  =       0 # P elements =       0 # va device   =       8
  # vector_srcs =       0 # N elements =       0


  ******  Runtime Statistics (seconds)  ******

  analysis           time    # points   tot. iter  conv.iter
  op point           0.00           1           0
  transient        256.74   200000100      808889      167892 rev=     19338
  readin             0.11
  errchk             0.19
  setup              0.00
  output             0.02


           peak memory used        124.12 megabytes
           total cpu time          257.23 seconds
           total elapsed time      608.48 seconds
           job started at     10:05:49 06/20/2017
           job ended   at     10:15:57 06/20/2017



>info:         ***** hspice job concluded
 lic: Release hspice token(s) 
 lic: total license checkout elapse time:        2.74(s)

			pVA malloc        0.11417 Mbytes          825 times
			pVA calloc        3.37451 Mbytes         2267 times
			pVA realloc       0.00074 Mbytes           36 times
			pVA valloc        0.00000 Mbytes            0 times
			pVA alloca        0.00000 Mbytes            0 times

			pVA TOT-MEM       3.48942 Mbytes         3128 times
			pVA free                                  491 times
			pVA strdup        0.00000 Mbytes            0 times


pVA concluded on Tue Jun 20 10:15:57 2017	GTM/In-use: 3.2500/0.3315 MB

