Using: /packages/synopsys/hspice/I-2013.12-SP1-1/hspice/linux/hspice opt_m15.sp
 ****** HSPICE -- I-2013.12-SP1-1 32-BIT (Mar 31 2014) RHEL32 ******            
  Copyright (C) 2014 Synopsys, Inc. All Rights Reserved.                        
  Unpublished-rights reserved under US copyright laws.
  This program is protected by law and is subject to the
  terms and conditions of the license agreement from Synopsys.
  Use of this program is your acceptance to be bound by the
  license agreement. HSPICE is the trademark of Synopsys, Inc.
  Input File: opt_m15.sp                                                        
  Command line options: opt_m15.sp
 lic:  
 lic: FLEXlm: v10.9.8 
 lic: USER:   engr852-63           HOSTNAME: hafez.sfsu.edu 
 lic: HOSTID: 00123f3584a1         PID:      4582 
 lic: Using FLEXlm license file: 
 lic: /packages/synopsys/license/synopsys.lic 
 lic: Checkout 1 hspice 
 lic: License/Maintenance for hspice will expire on 21-oct-2017/2016.06 
 lic: 1(in_use)/50(total) FLOATING license(s) on SERVER /packages/synopsys/license/synopsys.lic 
 lic:   
 Init: read install configuration file: /packages/synopsys/hspice/I-2013.12-SP1-1/hspice/meta.cfg


*pvaI* current limit stacksize=10485760, set new limit stacksize=62914560
 --------------------------------------------------------
|                                                        |
|          Synopsys Unified Verilog-A (pVA v3.0)         |
|                                                        |
|              Machine Name: hafez.sfsu.edu              |
| Copyright (c) 2013 Synopsys Inc., All Rights Reserved. |
|                                                        |
 --------------------------------------------------------

libepva built by pvamgr synmake_pva_build  on Fri Mar 28 20:06:12 PDT 2014
HSP_HOME:   /packages/synopsys/hspice/I-2013.12-SP1-1/hspice
HSP_ARCH:   linux
HSP_GCC :   /packages/synopsys/hspice/I-2013.12-SP1-1/hspice/GNU/rhel/gcc-4.7.2/bin/gcc -m32 
HSP_GCC_VER:   4.7.2
Working-Dir: /courses/engr852/engr852-63/labwork
Args:        -p hsp -t spi -f opt_m15.pvadir/pvaHDL.lis -o opt_m15.pvadir 

### optimize mode ###
Args: pva -p hsp -t spi -f opt_m15.pvadir/pvaHDL.lis -o opt_m15.pvadir

Begin of pVA compiling on Tue Jun 20 14:53:02 2017	GTM/In-use: 0.1250/0.1166 MB

Parsing 'stt.va'
Parsing include file '/packages/synopsys/hspice/I-2013.12-SP1-1/hspice/include/disciplines.vams'
Parsing include file '/packages/synopsys/hspice/I-2013.12-SP1-1/hspice/include/constants.vams'

End of pVA compiling on Tue Jun 20 14:53:02 2017	GTM/In-use: 0.2500/0.2083 MB


End of build pVA DB on Tue Jun 20 14:53:02 2017	GTM/In-use: 3.1250/3.1025 MB


opt_m15.pvadir/pvaRTL_linux.so is reused

End of pVA elaboration on Tue Jun 20 14:53:02 2017	GTM/In-use: 3.2500/3.1667 MB

 scientific notation:
 a=10**-18  f=10**-15  p=10**-12  n=10**-9  u=10**-6
 m=10**-3   k=10**3    x=10**6    g=10**9 
 Loading pVA library opt_m15.pvadir/pvaRTL_linux.so...
1****** HSPICE -- I-2013.12-SP1-1 32-BIT (Mar 31 2014) RHEL32 ******            
 ******  
 .temp 110

 ****** circuit name directory
 circuit number to circuit name directory
   number circuitname                     definition         multiplier
        0 main circuit
        1 xm36.                           n105               1.00 
        2 xm33.                           n105               1.00 
        3 xm15.                           n105               1.00 
        4 xm29.                           n105               1.00 
        5 xm9.                            n105               1.00 
        6 xm5.                            n105               1.00 
        7 xm3.                            n105               1.00 
        8 xm0.                            n105               1.00 
        9 xm35.                           p105               1.00 
       10 xm32.                           p105               1.00 
       11 xm30.                           p105               1.00 
       12 xm8.                            p105               1.00 
       13 xm7.                            p105               1.00 
       14 xm6.                            p105               1.00 
       15 xm2.                            p105               1.00 
       16 xm4.                            p105               1.00 
       17 xm1.                            p105               1.00 
       18 xi47.                           nor2               1.00 
       19 xi39.                           nand2              1.00 
       20 xi38.                           nand2              1.00 
       21 xi46.                           nand3              1.00 
       22 xi43.                           inverter           1.00 
       23 xi42.                           inverter           1.00 
       24 xi41.                           inverter           1.00 
       25 xi45.                           inverter           1.00 
       26 xi48.                           inverter           1.00 
       27 xi0.                            xor                1.00 
       28 xi2.                            and2               1.00 
       29 xi26.                           mtj                1.00 
       30 xi1.                            mtj                1.00 
       31 xi47.xm18.                      p105               1.00 
       32 xi47.xm16.                      p105               1.00 
       33 xi47.xm19.                      n105               1.00 
       34 xi47.xm17.                      n105               1.00 
       35 xi39.xm6.                       p105               1.00 
       36 xi39.xm18.                      p105               1.00 
       37 xi39.xm16.                      p105               1.00 
       38 xi39.xm0.                       n105               1.00 
       39 xi39.xm19.                      n105               1.00 
       40 xi39.xm17.                      n105               1.00 
       41 xi38.xm6.                       p105               1.00 
       42 xi38.xm18.                      p105               1.00 
       43 xi38.xm16.                      p105               1.00 
       44 xi38.xm0.                       n105               1.00 
       45 xi38.xm19.                      n105               1.00 
       46 xi38.xm17.                      n105               1.00 
       47 xi46.xm18.                      p105               1.00 
       48 xi46.xm16.                      p105               1.00 
       49 xi46.xm19.                      n105               1.00 
       50 xi46.xm17.                      n105               1.00 
       51 xi43.xm0.                       n105               1.00 
       52 xi43.xm1.                       p105               1.00 
       53 xi42.xm0.                       n105               1.00 
       54 xi42.xm1.                       p105               1.00 
       55 xi41.xm0.                       n105               1.00 
       56 xi41.xm1.                       p105               1.00 
       57 xi45.xm0.                       n105               1.00 
       58 xi45.xm1.                       p105               1.00 
       59 xi48.xm0.                       n105               1.00 
       60 xi48.xm1.                       p105               1.00 
       61 xi0.xm1.                        p105               1.00 
       62 xi0.xm0.                        p105               1.00 
       63 xi0.xm22.                       p105               1.00 
       64 xi0.xm21.                       p105               1.00 
       65 xi0.xm3.                        n105               1.00 
       66 xi0.xm2.                        n105               1.00 
       67 xi0.xm24.                       n105               1.00 
       68 xi0.xm23.                       n105               1.00 
       69 xi2.xm1.                        p105               1.00 
       70 xi2.xm18.                       p105               1.00 
       71 xi2.xm16.                       p105               1.00 
       72 xi2.xm19.                       n105               1.00 
       73 xi2.xm17.                       n105               1.00 
       74 xi2.xm0.                        n105               1.00 
       75 xi26.xm1.                       hys(va)            1.00 
       76 xi26.xm2.                       ani                1.00 
       77 xi26.xc1.                       caps1(va)          1.00 
       78 xi26.xrout.                     vcr0(va)           1.00 
       79 xi26.xrwrite.                   vcr(va)            1.00 
       80 xi1.xm1.                        hys(va)            1.00 
       81 xi1.xm2.                        ani                1.00 
       82 xi1.xc1.                        caps1(va)          1.00 
       83 xi1.xrout.                      vcr0(va)           1.00 
       84 xi1.xrwrite.                    vcr(va)            1.00 


 circuit parameter definitions
  parameter          =  value 

     0:dcgso_n18_fc                                            =   0.           
     0:du0_n18_fc                                              =   0.           
     0:dcgdo_n18_fc                                            =   0.           
     0:daigsd_n18_fc                                           =   0.           
     0:dcjswgs_n18_fc                                          =   0.           
     0:dcjswgd_n18_fc                                          =   0.           
     0:drdsw_n18_fc                                            =   0.           
     0:dcjs_n18_fc                                             =   0.           
     0:dvth0_n18_fc                                            =   0.           
     0:dcjswd_n18_fc                                           =   0.           
     0:dcgdl_n18_fc                                            =   0.           
     0:dlvth0_n18_fc                                           =   0.           
     0:dcgsl_n18_fc                                            =   0.           
     0:dcjd_n18_fc                                             =   0.           
     0:dxw_n18_fc                                              =   0.           
     0:dtoxe_n18_fc                                            =   0.           
     0:dpvth0_n18_fc                                           =   0.           
     0:dxl_n18_fc                                              =   0.           
     0:dcjsws_n18_fc                                           =   0.           
     0:daigc_n18_fc                                            =   0.           
     0:dcgso_p18_fc                                            =   0.           
     0:du0_p18_fc                                              =   0.           
     0:dcgdo_p18_fc                                            =   0.           
     0:daigsd_p18_fc                                           =   0.           
     0:dcjswgs_p18_fc                                          =   0.           
     0:dcjswgd_p18_fc                                          =   0.           
     0:drdsw_p18_fc                                            =   0.           
     0:dcjs_p18_fc                                             =   0.           
     0:dvth0_p18_fc                                            =   0.           
     0:dcjswd_p18_fc                                           =   0.           
     0:dcgdl_p18_fc                                            =   0.           
     0:dlvth0_p18_fc                                           =   0.           
     0:dcgsl_p18_fc                                            =   0.           
     0:dcjd_p18_fc                                             =   0.           
     0:dxw_p18_fc                                              =   0.           
     0:dtoxe_p18_fc                                            =   0.           
     0:dpvth0_p18_fc                                           =   0.           
     0:dxl_p18_fc                                              =   0.           
     0:dcjsws_p18_fc                                           =   0.           
     0:daigc_p18_fc                                            =   0.           
     0:dcgso_n105_hvt_fc                                       =   0.           
     0:du0_n105_hvt_fc                                         =   0.           
     0:dcgdo_n105_hvt_fc                                       =   0.           
     0:daigsd_n105_hvt_fc                                      =   0.           
     0:dcjswgs_n105_hvt_fc                                     =   0.           
     0:dcjswgd_n105_hvt_fc                                     =   0.           
     0:drdsw_n105_hvt_fc                                       =   0.           
     0:dcjs_n105_hvt_fc                                        =   0.           
     0:dvth0_n105_hvt_fc                                       =   0.           
     0:dcjswd_n105_hvt_fc                                      =   0.           
     0:dcgdl_n105_hvt_fc                                       =   0.           
     0:dlvth0_n105_hvt_fc                                      =   0.           
     0:dcgsl_n105_hvt_fc                                       =   0.           
     0:dcjd_n105_hvt_fc                                        =   0.           
     0:dxw_n105_hvt_fc                                         =   0.           
     0:dtoxe_n105_hvt_fc                                       =   0.           
     0:dpvth0_n105_hvt_fc                                      =   0.           
     0:dxl_n105_hvt_fc                                         =   0.           
     0:dcjsws_n105_hvt_fc                                      =   0.           
     0:daigc_n105_hvt_fc                                       =   0.           
     0:dcgso_p105_hvt_fc                                       =   0.           
     0:du0_p105_hvt_fc                                         =   0.           
     0:dcgdo_p105_hvt_fc                                       =   0.           
     0:daigsd_p105_hvt_fc                                      =   0.           
     0:dcjswgs_p105_hvt_fc                                     =   0.           
     0:dcjswgd_p105_hvt_fc                                     =   0.           
     0:drdsw_p105_hvt_fc                                       =   0.           
     0:dcjs_p105_hvt_fc                                        =   0.           
     0:dvth0_p105_hvt_fc                                       =   0.           
     0:dcjswd_p105_hvt_fc                                      =   0.           
     0:dcgdl_p105_hvt_fc                                       =   0.           
     0:dlvth0_p105_hvt_fc                                      =   0.           
     0:dcgsl_p105_hvt_fc                                       =   0.           
     0:dcjd_p105_hvt_fc                                        =   0.           
     0:dxw_p105_hvt_fc                                         =   0.           
     0:dtoxe_p105_hvt_fc                                       =   0.           
     0:dpvth0_p105_hvt_fc                                      =   0.           
     0:dxl_p105_hvt_fc                                         =   0.           
     0:dcjsws_p105_hvt_fc                                      =   0.           
     0:daigc_p105_hvt_fc                                       =   0.           
     0:dcgso_n105_lvt_fc                                       =   0.           
     0:du0_n105_lvt_fc                                         =   0.           
     0:dcgdo_n105_lvt_fc                                       =   0.           
     0:daigsd_n105_lvt_fc                                      =   0.           
     0:dcjswgs_n105_lvt_fc                                     =   0.           
     0:dcjswgd_n105_lvt_fc                                     =   0.           
     0:drdsw_n105_lvt_fc                                       =   0.           
     0:dcjs_n105_lvt_fc                                        =   0.           
     0:dvth0_n105_lvt_fc                                       =   0.           
     0:dcjswd_n105_lvt_fc                                      =   0.           
     0:dcgdl_n105_lvt_fc                                       =   0.           
     0:dlvth0_n105_lvt_fc                                      =   0.           
     0:dcgsl_n105_lvt_fc                                       =   0.           
     0:dcjd_n105_lvt_fc                                        =   0.           
     0:dxw_n105_lvt_fc                                         =   0.           
     0:dtoxe_n105_lvt_fc                                       =   0.           
     0:dpvth0_n105_lvt_fc                                      =   0.           
     0:dxl_n105_lvt_fc                                         =   0.           
     0:dcjsws_n105_lvt_fc                                      =   0.           
     0:daigc_n105_lvt_fc                                       =   0.           
     0:dcgso_p105_lvt_fc                                       =   0.           
     0:du0_p105_lvt_fc                                         =   0.           
     0:dcgdo_p105_lvt_fc                                       =   0.           
     0:daigsd_p105_lvt_fc                                      =   0.           
     0:dcjswgs_p105_lvt_fc                                     =   0.           
     0:dcjswgd_p105_lvt_fc                                     =   0.           
     0:drdsw_p105_lvt_fc                                       =   0.           
     0:dcjs_p105_lvt_fc                                        =   0.           
     0:dvth0_p105_lvt_fc                                       =   0.           
     0:dcjswd_p105_lvt_fc                                      =   0.           
     0:dcgdl_p105_lvt_fc                                       =   0.           
     0:dlvth0_p105_lvt_fc                                      =   0.           
     0:dcgsl_p105_lvt_fc                                       =   0.           
     0:dcjd_p105_lvt_fc                                        =   0.           
     0:dxw_p105_lvt_fc                                         =   0.           
     0:dtoxe_p105_lvt_fc                                       =   0.           
     0:dpvth0_p105_lvt_fc                                      =   0.           
     0:dxl_p105_lvt_fc                                         =   0.           
     0:dcjsws_p105_lvt_fc                                      =   0.           
     0:daigc_p105_lvt_fc                                       =   0.           
     0:dcgso_n105_fc                                           =   0.           
     0:du0_n105_fc                                             =   0.           
     0:dcgdo_n105_fc                                           =   0.           
     0:daigsd_n105_fc                                          =   0.           
     0:dcjswgs_n105_fc                                         =   0.           
     0:dcjswgd_n105_fc                                         =   0.           
     0:drdsw_n105_fc                                           =   0.           
     0:dcjs_n105_fc                                            =   0.           
     0:dvth0_n105_fc                                           =   0.           
     0:dcjswd_n105_fc                                          =   0.           
     0:dcgdl_n105_fc                                           =   0.           
     0:dlvth0_n105_fc                                          =   0.           
     0:dcgsl_n105_fc                                           =   0.           
     0:dcjd_n105_fc                                            =   0.           
     0:dxw_n105_fc                                             =   0.           
     0:dtoxe_n105_fc                                           =   0.           
     0:dpvth0_n105_fc                                          =   0.           
     0:dxl_n105_fc                                             =   0.           
     0:dcjsws_n105_fc                                          =   0.           
     0:daigc_n105_fc                                           =   0.           
     0:dcgso_p105_fc                                           =   0.           
     0:du0_p105_fc                                             =   0.           
     0:dcgdo_p105_fc                                           =   0.           
     0:daigsd_p105_fc                                          =   0.           
     0:dcjswgs_p105_fc                                         =   0.           
     0:dcjswgd_p105_fc                                         =   0.           
     0:drdsw_p105_fc                                           =   0.           
     0:dcjs_p105_fc                                            =   0.           
     0:dvth0_p105_fc                                           =   0.           
     0:dcjswd_p105_fc                                          =   0.           
     0:dcgdl_p105_fc                                           =   0.           
     0:dlvth0_p105_fc                                          =   0.           
     0:dcgsl_p105_fc                                           =   0.           
     0:dcjd_p105_fc                                            =   0.           
     0:dxw_p105_fc                                             =   0.           
     0:dtoxe_p105_fc                                           =   0.           
     0:dpvth0_p105_fc                                          =   0.           
     0:dxl_p105_fc                                             =   0.           
     0:dcjsws_p105_fc                                          =   0.           
     0:daigc_p105_fc                                           =   0.           
     0:n25_vfbo_del                                            =   0.           
     0:n25_cjorsti_del                                         =   0.           
     0:n25_cjorgat_del                                         =   0.           
     0:n25_vfbl_del                                            =   0.           
     0:n25_cjorbot_del                                         =   0.           
     0:n25_cfl_del                                             =   0.           
     0:n25_lvaro_del                                           =   0.           
     0:n25_rsw1_del                                            =   0.           
     0:n25_ctlexp_del                                          =   0.           
     0:n25_iginvlw_del                                         =   0.           
     0:n25_lov_del                                             =   0.           
     0:n25_ctl_del                                             =   0.           
     0:n25_toxo_del                                            =   0.           
     0:n25_vfblw_del                                           =   0.           
     0:n25_igovw_del                                           =   0.           
     0:n25_wvaro_del                                           =   0.           
     0:n25_uo_del                                              =   0.           
     0:n25_cflexp_del                                          =   0.           
     0:p25_vfbo_del                                            =   0.           
     0:p25_cjorsti_del                                         =   0.           
     0:p25_cjorgat_del                                         =   0.           
     0:p25_vfbl_del                                            =   0.           
     0:p25_cjorbot_del                                         =   0.           
     0:p25_cfl_del                                             =   0.           
     0:p25_lvaro_del                                           =   0.           
     0:p25_rsw1_del                                            =   0.           
     0:p25_ctlexp_del                                          =   0.           
     0:p25_iginvlw_del                                         =   0.           
     0:p25_lov_del                                             =   0.           
     0:p25_ctl_del                                             =   0.           
     0:p25_toxo_del                                            =   0.           
     0:p25_vfblw_del                                           =   0.           
     0:p25_igovw_del                                           =   0.           
     0:p25_wvaro_del                                           =   0.           
     0:p25_uo_del                                              =   0.           
     0:p25_cflexp_del                                          =   0.           
     0:shrink_factor                                           = 620.0000m      
     0:sg_comp                                                 =   4.0000n      
     0:eg_comp                                                 =  15.0000n      
     0:dg_comp                                                 =  27.0000n      
     0:fnoicor                                                 =   0.           
     0:gwells                                                  =   1.0000       
     0:gstis                                                   =   1.0000       
     0:fet_cnr_sw                                              =   0.           
     0:cf_global                                               =   1.0000       
     0:pre_layout_sw                                           =   0.           
     0:sigma                                                   =   0.           
     0:cor_acv_uncorr                                          =   0.           
     0:pc_ca_cap                                               =  50.0000p      
     0:cnr_rnd_rss                                             = 300.0000m      
     0:tw_factor                                               =   2.0000       
     0:grm_sti                                                 = 155.0000n      
     0:p_sti                                                   =   0.           
     0:xl_n105_hvt_g                                           =   2.0000n      
     0:xw_n105_hvt_g                                           =   0.           
     0:u0_n105_hvt_g                                           =  30.4000       
     0:rdsw_n105_hvt_g                                         = 340.5310       
     0:vth0_n105_hvt_g                                         = 567.0000m      
     0:cgdl_n105_hvt                                           = 144.3600p      
     0:cgdo_n105_hvt                                           =  96.2600p      
     0:cgsl_n105_hvt                                           = 144.3600p      
     0:cgso_n105_hvt                                           =  96.2600p      
     0:cjd_n105_hvt                                            =   1.3460m      
     0:cjs_n105_hvt                                            =   1.3460m      
     0:cjswd_n105_hvt                                          =  82.5000p      
     0:cjswgd_n105_hvt                                         = 304.0000p      
     0:cjswgs_n105_hvt                                         = 304.0000p      
     0:cjsws_n105_hvt                                          =  82.5000p      
     0:toxe_n105_hvt                                           =   2.3900n      
     0:toxp_n105_hvt                                           =   2.2206n      
     0:dcov_n105_hvt                                           =   0.           
     0:lcov_n105_hvt                                           =   0.           
     0:lint_n105_hvt                                           =   0.           
     0:dlc_n105_hvt                                            =   6.9000n      
     0:xl_p105_hvt_g                                           =   2.0000n      
     0:xw_p105_hvt_g                                           =   0.           
     0:u0_p105_hvt_g                                           =  60.9500       
     0:rdsw_p105_hvt_g                                         = 390.9450       
     0:vth0_p105_hvt_g                                         =-302.0000m      
     0:cgdl_p105_hvt                                           =  65.0000p      
     0:cgdo_p105_hvt                                           = 148.0000p      
     0:cgsl_p105_hvt                                           =  65.0000p      
     0:cgso_p105_hvt                                           = 148.0000p      
     0:cjd_p105_hvt                                            =   1.3460m      
     0:cjs_p105_hvt                                            =   1.3460m      
     0:cjswd_p105_hvt                                          =  65.0000p      
     0:cjswgd_p105_hvt                                         = 299.0000p      
     0:cjswgs_p105_hvt                                         = 299.0000p      
     0:cjsws_p105_hvt                                          =  65.0000p      
     0:toxe_p105_hvt                                           =   2.6200n      
     0:toxp_p105_hvt                                           =   2.2948n      
     0:mulu0_p105_hvt                                          =-106.3050m      
     0:dcov_p105_hvt                                           =   0.           
     0:lcov_p105_hvt                                           =   0.           
     0:lint_p105_hvt                                           =   0.           
     0:dlc_p105_hvt                                            =   7.2555n      
     0:xl_n105_lvt_g                                           =   2.0000n      
     0:xw_n105_lvt_g                                           =   0.           
     0:u0_n105_lvt_g                                           =  30.4000       
     0:rdsw_n105_lvt_g                                         = 340.5310       
     0:vth0_n105_lvt_g                                         = 370.0000m      
     0:cgdl_n105_lvt                                           = 144.3600p      
     0:cgdo_n105_lvt                                           =  96.2600p      
     0:cgsl_n105_lvt                                           = 144.3600p      
     0:cgso_n105_lvt                                           =  96.2600p      
     0:cjd_n105_lvt                                            =   1.3460m      
     0:cjs_n105_lvt                                            =   1.3460m      
     0:cjswd_n105_lvt                                          =  82.5000p      
     0:cjswgd_n105_lvt                                         = 304.0000p      
     0:cjswgs_n105_lvt                                         = 304.0000p      
     0:cjsws_n105_lvt                                          =  82.5000p      
     0:toxe_n105_lvt                                           =   2.3900n      
     0:toxp_n105_lvt                                           =   2.2206n      
     0:dcov_n105_lvt                                           =   0.           
     0:lcov_n105_lvt                                           =   0.           
     0:lint_n105_lvt                                           =   0.           
     0:dlc_n105_lvt                                            =   6.9000n      
     0:xl_p105_lvt_g                                           =   2.0000n      
     0:xw_p105_lvt_g                                           =   0.           
     0:u0_p105_lvt_g                                           =  60.9500       
     0:rdsw_p105_lvt_g                                         = 390.9450       
     0:vth0_p105_lvt_g                                         =-213.0000m      
     0:cgdl_p105_lvt                                           =  65.0000p      
     0:cgdo_p105_lvt                                           = 148.0000p      
     0:cgsl_p105_lvt                                           =  65.0000p      
     0:cgso_p105_lvt                                           = 148.0000p      
     0:cjd_p105_lvt                                            =   1.3460m      
     0:cjs_p105_lvt                                            =   1.3460m      
     0:cjswd_p105_lvt                                          =  65.0000p      
     0:cjswgd_p105_lvt                                         = 299.0000p      
     0:cjswgs_p105_lvt                                         = 299.0000p      
     0:cjsws_p105_lvt                                          =  65.0000p      
     0:toxe_p105_lvt                                           =   2.6200n      
     0:toxp_p105_lvt                                           =   2.2948n      
     0:mulu0_p105_lvt                                          =-106.3050m      
     0:dcov_p105_lvt                                           =   0.           
     0:lcov_p105_lvt                                           =   0.           
     0:lint_p105_lvt                                           =   0.           
     0:dlc_p105_lvt                                            =   7.2555n      
     0:xl_n105_g                                               =   2.0000n      
     0:xw_n105_g                                               =   0.           
     0:u0_n105_g                                               =  30.4000       
     0:rdsw_n105_g                                             = 340.5310       
     0:vth0_n105_g                                             = 442.1600m      
     0:cgdl_n105                                               = 144.3600p      
     0:cgdo_n105                                               =  96.2600p      
     0:cgsl_n105                                               = 144.3600p      
     0:cgso_n105                                               =  96.2600p      
     0:cjd_n105                                                =   1.3460m      
     0:cjs_n105                                                =   1.3460m      
     0:cjswd_n105                                              =  82.5000p      
     0:cjswgd_n105                                             = 304.0000p      
     0:cjswgs_n105                                             = 304.0000p      
     0:cjsws_n105                                              =  82.5000p      
     0:toxe_n105                                               =   2.3900n      
     0:toxp_n105                                               =   2.2206n      
     0:dcov_n105                                               =   0.           
     0:lcov_n105                                               =   0.           
     0:lint_n105                                               =   0.           
     0:dlc_n105                                                =   6.9000n      
     0:xl_p105_g                                               =   2.0000n      
     0:xw_p105_g                                               =   0.           
     0:u0_p105_g                                               =  60.9500       
     0:rdsw_p105_g                                             = 390.9450       
     0:vth0_p105_g                                             =-256.4800m      
     0:cgdl_p105                                               =  65.0000p      
     0:cgdo_p105                                               = 148.0000p      
     0:cgsl_p105                                               =  65.0000p      
     0:cgso_p105                                               = 148.0000p      
     0:cjd_p105                                                =   1.3460m      
     0:cjs_p105                                                =   1.3460m      
     0:cjswd_p105                                              =  65.0000p      
     0:cjswgd_p105                                             = 299.0000p      
     0:cjswgs_p105                                             = 299.0000p      
     0:cjsws_p105                                              =  65.0000p      
     0:toxe_p105                                               =   2.6200n      
     0:toxp_p105                                               =   2.2948n      
     0:mulu0_p105                                              =-106.3050m      
     0:dcov_p105                                               =   0.           
     0:lcov_p105                                               =   0.           
     0:lint_p105                                               =   0.           
     0:dlc_p105                                                =   7.2555n      
     0:xl_n18_g                                                =  -5.0000n      
     0:xw_n18_g                                                =   0.           
     0:u0_n18_g                                                = 809.7000       
     0:rdsw_n18_g                                              = 133.4000       
     0:vth0_n18_g                                              = 497.4000m      
     0:cgdl_n18                                                = 147.1000p      
     0:cgdo_n18                                                = 158.9400p      
     0:cgsl_n18                                                = 147.1000p      
     0:cgso_n18                                                = 158.9400p      
     0:cjd_n18                                                 =   1.9750m      
     0:cjs_n18                                                 =   1.9750m      
     0:cjswd_n18                                               = 102.6000p      
     0:cjswgd_n18                                              = 236.0000p      
     0:cjswgs_n18                                              = 236.0000p      
     0:cjsws_n18                                               = 102.6000p      
     0:toxe_n18                                                =   3.5200n      
     0:toxp_n18                                                =   3.3940n      
     0:mulu0_n18                                               =   0.           
     0:dcov_n18                                                =   0.           
     0:lcov_n18                                                =   0.           
     0:lint_n18                                                =   0.           
     0:dlc_n18                                                 =  15.7500n      
     0:xl_p18_g                                                =  -5.0000n      
     0:xw_p18_g                                                =   0.           
     0:u0_p18_g                                                = 105.2100       
     0:rdsw_p18_g                                              =  40.0000       
     0:vth0_p18_g                                              =-429.9000m      
     0:cgdl_p18                                                = 186.0000p      
     0:cgdo_p18                                                =  40.1300p      
     0:cgsl_p18                                                = 186.0000p      
     0:cgso_p18                                                =  40.1300p      
     0:cjd_p18                                                 =   1.4940m      
     0:cjs_p18                                                 =   1.4940m      
     0:cjswd_p18                                               =  70.9400p      
     0:cjswgd_p18                                              = 275.4000p      
     0:cjswgs_p18                                              = 275.4000p      
     0:cjsws_p18                                               =  70.9400p      
     0:toxe_p18                                                =   3.7400n      
     0:toxp_p18                                                =   3.6300n      
     0:mulu0_p18                                               =   0.           
     0:dcov_p18                                                =   0.           
     0:lcov_p18                                                =   0.           
     0:lint_p18                                                =  -7.0000n      
     0:dlc_p18                                                 =  10.2000n      
     0:mc_sw                                                   =   0.           
     0:cnr_acv_uncorr                                          =   0.           
     0:mc_test1                                                =   0.           
     0:mc2_test1                                               =   0.           
     0:mc_test2                                                =   0.           
     0:mc2_test2                                               =   0.           
     0:mc_test3                                                =   0.           
     0:mc2_test3                                               =   0.           
     0:dcgdl_n105_hvt_skew                                     =   0.           
     0:dcgdo_n105_hvt_skew                                     =   0.           
     0:dcgsl_n105_hvt_skew                                     =   0.           
     0:dcgso_n105_hvt_skew                                     =   0.           
     0:dcjd_n105_hvt_skew                                      =   0.           
     0:dcjs_n105_hvt_skew                                      =   0.           
     0:dcjswd_n105_hvt_skew                                    =   0.           
     0:dcjswgd_n105_hvt_skew                                   =   0.           
     0:dcjswgs_n105_hvt_skew                                   =   0.           
     0:dcjsws_n105_hvt_skew                                    =   0.           
     0:drdsw_n105_hvt_skew                                     =   0.           
     0:dtoxe_n105_hvt_skew                                     =   0.           
     0:du0_n105_hvt_skew                                       =   0.           
     0:dvth0_n105_hvt_skew                                     =   0.           
     0:dxl_n105_hvt_skew                                       =   0.           
     0:dxw_n105_hvt_skew                                       =   0.           
     0:dcgdl_p105_hvt_skew                                     =   0.           
     0:dcgdo_p105_hvt_skew                                     =   0.           
     0:dcgsl_p105_hvt_skew                                     =   0.           
     0:dcgso_p105_hvt_skew                                     =   0.           
     0:dcjd_p105_hvt_skew                                      =   0.           
     0:dcjs_p105_hvt_skew                                      =   0.           
     0:dcjswd_p105_hvt_skew                                    =   0.           
     0:dcjswgd_p105_hvt_skew                                   =   0.           
     0:dcjswgs_p105_hvt_skew                                   =   0.           
     0:dcjsws_p105_hvt_skew                                    =   0.           
     0:drdsw_p105_hvt_skew                                     =   0.           
     0:dtoxe_p105_hvt_skew                                     =   0.           
     0:du0_p105_hvt_skew                                       =   0.           
     0:dvth0_p105_hvt_skew                                     =   0.           
     0:dxl_p105_hvt_skew                                       =   0.           
     0:dxw_p105_hvt_skew                                       =   0.           
     0:dcgdl_n105_lvt_skew                                     =   0.           
     0:dcgdo_n105_lvt_skew                                     =   0.           
     0:dcgsl_n105_lvt_skew                                     =   0.           
     0:dcgso_n105_lvt_skew                                     =   0.           
     0:dcjd_n105_lvt_skew                                      =   0.           
     0:dcjs_n105_lvt_skew                                      =   0.           
     0:dcjswd_n105_lvt_skew                                    =   0.           
     0:dcjswgd_n105_lvt_skew                                   =   0.           
     0:dcjswgs_n105_lvt_skew                                   =   0.           
     0:dcjsws_n105_lvt_skew                                    =   0.           
     0:drdsw_n105_lvt_skew                                     =   0.           
     0:dtoxe_n105_lvt_skew                                     =   0.           
     0:du0_n105_lvt_skew                                       =   0.           
     0:dvth0_n105_lvt_skew                                     =   0.           
     0:dxl_n105_lvt_skew                                       =   0.           
     0:dxw_n105_lvt_skew                                       =   0.           
     0:dcgdl_p105_lvt_skew                                     =   0.           
     0:dcgdo_p105_lvt_skew                                     =   0.           
     0:dcgsl_p105_lvt_skew                                     =   0.           
     0:dcgso_p105_lvt_skew                                     =   0.           
     0:dcjd_p105_lvt_skew                                      =   0.           
     0:dcjs_p105_lvt_skew                                      =   0.           
     0:dcjswd_p105_lvt_skew                                    =   0.           
     0:dcjswgd_p105_lvt_skew                                   =   0.           
     0:dcjswgs_p105_lvt_skew                                   =   0.           
     0:dcjsws_p105_lvt_skew                                    =   0.           
     0:drdsw_p105_lvt_skew                                     =   0.           
     0:dtoxe_p105_lvt_skew                                     =   0.           
     0:du0_p105_lvt_skew                                       =   0.           
     0:dvth0_p105_lvt_skew                                     =   0.           
     0:dxl_p105_lvt_skew                                       =   0.           
     0:dxw_p105_lvt_skew                                       =   0.           
     0:dcgdl_n105_skew                                         =   0.           
     0:dcgdo_n105_skew                                         =   0.           
     0:dcgsl_n105_skew                                         =   0.           
     0:dcgso_n105_skew                                         =   0.           
     0:dcjd_n105_skew                                          =   0.           
     0:dcjs_n105_skew                                          =   0.           
     0:dcjswd_n105_skew                                        =   0.           
     0:dcjswgd_n105_skew                                       =   0.           
     0:dcjswgs_n105_skew                                       =   0.           
     0:dcjsws_n105_skew                                        =   0.           
     0:drdsw_n105_skew                                         =   0.           
     0:dtoxe_n105_skew                                         =   0.           
     0:du0_n105_skew                                           =   0.           
     0:dvth0_n105_skew                                         =   0.           
     0:dxl_n105_skew                                           =   0.           
     0:dxw_n105_skew                                           =   0.           
     0:dcgdl_p105_skew                                         =   0.           
     0:dcgdo_p105_skew                                         =   0.           
     0:dcgsl_p105_skew                                         =   0.           
     0:dcgso_p105_skew                                         =   0.           
     0:dcjd_p105_skew                                          =   0.           
     0:dcjs_p105_skew                                          =   0.           
     0:dcjswd_p105_skew                                        =   0.           
     0:dcjswgd_p105_skew                                       =   0.           
     0:dcjswgs_p105_skew                                       =   0.           
     0:dcjsws_p105_skew                                        =   0.           
     0:drdsw_p105_skew                                         =   0.           
     0:dtoxe_p105_skew                                         =   0.           
     0:du0_p105_skew                                           =   0.           
     0:dvth0_p105_skew                                         =   0.           
     0:dxl_p105_skew                                           =   0.           
     0:dxw_p105_skew                                           =   0.           
     0:dcgdl_n18_skew                                          =   0.           
     0:dcgdo_n18_skew                                          =   0.           
     0:dcgsl_n18_skew                                          =   0.           
     0:dcgso_n18_skew                                          =   0.           
     0:dcjd_n18_skew                                           =   0.           
     0:dcjs_n18_skew                                           =   0.           
     0:dcjswd_n18_skew                                         =   0.           
     0:dcjswgd_n18_skew                                        =   0.           
     0:dcjswgs_n18_skew                                        =   0.           
     0:dcjsws_n18_skew                                         =   0.           
     0:drdsw_n18_skew                                          =   0.           
     0:dtoxe_n18_skew                                          =   0.           
     0:du0_n18_skew                                            =   0.           
     0:dvth0_n18_skew                                          =   0.           
     0:dxl_n18_skew                                            =   0.           
     0:dxw_n18_skew                                            =   0.           
     0:dcgdl_p18_skew                                          =   0.           
     0:dcgdo_p18_skew                                          =   0.           
     0:dcgsl_p18_skew                                          =   0.           
     0:dcgso_p18_skew                                          =   0.           
     0:dcjd_p18_skew                                           =   0.           
     0:dcjs_p18_skew                                           =   0.           
     0:dcjswd_p18_skew                                         =   0.           
     0:dcjswgd_p18_skew                                        =   0.           
     0:dcjswgs_p18_skew                                        =   0.           
     0:dcjsws_p18_skew                                         =   0.           
     0:drdsw_p18_skew                                          =   0.           
     0:dtoxe_p18_skew                                          =   0.           
     0:du0_p18_skew                                            =   0.           
     0:dvth0_p18_skew                                          =   0.           
     0:dxl_p18_skew                                            =   0.           
     0:dxw_p18_skew                                            =   0.           
     0:dvth0_n105_hvt_mc                                       =   0.           
     0:dtoxe_n105_hvt_mc                                       =   0.           
     0:dxl_n105_hvt_mc                                         =   0.           
     0:dxw_n105_hvt_mc                                         =   0.           
     0:du0_n105_hvt_mc                                         =   0.           
     0:drdsw_n105_hvt_mc                                       =   0.           
     0:dcgsl_n105_hvt_mc                                       =   0.           
     0:dcgdl_n105_hvt_mc                                       =   0.           
     0:dcgso_n105_hvt_mc                                       =   0.           
     0:dcgdo_n105_hvt_mc                                       =   0.           
     0:dcjs_n105_hvt_mc                                        =   0.           
     0:dcjd_n105_hvt_mc                                        =   0.           
     0:dcjsws_n105_hvt_mc                                      =   0.           
     0:dcjswd_n105_hvt_mc                                      =   0.           
     0:dcjswgs_n105_hvt_mc                                     =   0.           
     0:dcjswgd_n105_hvt_mc                                     =   0.           
     0:dvth0_p105_hvt_mc                                       =   0.           
     0:dtoxe_p105_hvt_mc                                       =   0.           
     0:dxl_p105_hvt_mc                                         =   0.           
     0:dxw_p105_hvt_mc                                         =   0.           
     0:du0_p105_hvt_mc                                         =   0.           
     0:drdsw_p105_hvt_mc                                       =   0.           
     0:dcgsl_p105_hvt_mc                                       =   0.           
     0:dcgdl_p105_hvt_mc                                       =   0.           
     0:dcgso_p105_hvt_mc                                       =   0.           
     0:dcgdo_p105_hvt_mc                                       =   0.           
     0:dcjs_p105_hvt_mc                                        =   0.           
     0:dcjd_p105_hvt_mc                                        =   0.           
     0:dcjsws_p105_hvt_mc                                      =   0.           
     0:dcjswd_p105_hvt_mc                                      =   0.           
     0:dcjswgs_p105_hvt_mc                                     =   0.           
     0:dcjswgd_p105_hvt_mc                                     =   0.           
     0:dvth0_n105_lvt_mc                                       =   0.           
     0:dtoxe_n105_lvt_mc                                       =   0.           
     0:dxl_n105_lvt_mc                                         =   0.           
     0:dxw_n105_lvt_mc                                         =   0.           
     0:du0_n105_lvt_mc                                         =   0.           
     0:drdsw_n105_lvt_mc                                       =   0.           
     0:dcgsl_n105_lvt_mc                                       =   0.           
     0:dcgdl_n105_lvt_mc                                       =   0.           
     0:dcgso_n105_lvt_mc                                       =   0.           
     0:dcgdo_n105_lvt_mc                                       =   0.           
     0:dcjs_n105_lvt_mc                                        =   0.           
     0:dcjd_n105_lvt_mc                                        =   0.           
     0:dcjsws_n105_lvt_mc                                      =   0.           
     0:dcjswd_n105_lvt_mc                                      =   0.           
     0:dcjswgs_n105_lvt_mc                                     =   0.           
     0:dcjswgd_n105_lvt_mc                                     =   0.           
     0:dvth0_p105_lvt_mc                                       =   0.           
     0:dtoxe_p105_lvt_mc                                       =   0.           
     0:dxl_p105_lvt_mc                                         =   0.           
     0:dxw_p105_lvt_mc                                         =   0.           
     0:du0_p105_lvt_mc                                         =   0.           
     0:drdsw_p105_lvt_mc                                       =   0.           
     0:dcgsl_p105_lvt_mc                                       =   0.           
     0:dcgdl_p105_lvt_mc                                       =   0.           
     0:dcgso_p105_lvt_mc                                       =   0.           
     0:dcgdo_p105_lvt_mc                                       =   0.           
     0:dcjs_p105_lvt_mc                                        =   0.           
     0:dcjd_p105_lvt_mc                                        =   0.           
     0:dcjsws_p105_lvt_mc                                      =   0.           
     0:dcjswd_p105_lvt_mc                                      =   0.           
     0:dcjswgs_p105_lvt_mc                                     =   0.           
     0:dcjswgd_p105_lvt_mc                                     =   0.           
     0:dvth0_n105_mc                                           =   0.           
     0:dtoxe_n105_mc                                           =   0.           
     0:dxl_n105_mc                                             =   0.           
     0:dxw_n105_mc                                             =   0.           
     0:du0_n105_mc                                             =   0.           
     0:drdsw_n105_mc                                           =   0.           
     0:dcgsl_n105_mc                                           =   0.           
     0:dcgdl_n105_mc                                           =   0.           
     0:dcgso_n105_mc                                           =   0.           
     0:dcgdo_n105_mc                                           =   0.           
     0:dcjs_n105_mc                                            =   0.           
     0:dcjd_n105_mc                                            =   0.           
     0:dcjsws_n105_mc                                          =   0.           
     0:dcjswd_n105_mc                                          =   0.           
     0:dcjswgs_n105_mc                                         =   0.           
     0:dcjswgd_n105_mc                                         =   0.           
     0:dvth0_p105_mc                                           =   0.           
     0:dtoxe_p105_mc                                           =   0.           
     0:dxl_p105_mc                                             =   0.           
     0:dxw_p105_mc                                             =   0.           
     0:du0_p105_mc                                             =   0.           
     0:drdsw_p105_mc                                           =   0.           
     0:dcgsl_p105_mc                                           =   0.           
     0:dcgdl_p105_mc                                           =   0.           
     0:dcgso_p105_mc                                           =   0.           
     0:dcgdo_p105_mc                                           =   0.           
     0:dcjs_p105_mc                                            =   0.           
     0:dcjd_p105_mc                                            =   0.           
     0:dcjsws_p105_mc                                          =   0.           
     0:dcjswd_p105_mc                                          =   0.           
     0:dcjswgs_p105_mc                                         =   0.           
     0:dcjswgd_p105_mc                                         =   0.           
     0:dvth0_n18_mc                                            =   0.           
     0:dtoxe_n18_mc                                            =   0.           
     0:dxl_n18_mc                                              =   0.           
     0:dxw_n18_mc                                              =   0.           
     0:du0_n18_mc                                              =   0.           
     0:drdsw_n18_mc                                            =   0.           
     0:dcgsl_n18_mc                                            =   0.           
     0:dcgdl_n18_mc                                            =   0.           
     0:dcgso_n18_mc                                            =   0.           
     0:dcgdo_n18_mc                                            =   0.           
     0:dcjs_n18_mc                                             =   0.           
     0:dcjd_n18_mc                                             =   0.           
     0:dcjsws_n18_mc                                           =   0.           
     0:dcjswd_n18_mc                                           =   0.           
     0:dcjswgs_n18_mc                                          =   0.           
     0:dcjswgd_n18_mc                                          =   0.           
     0:dvth0_p18_mc                                            =   0.           
     0:dtoxe_p18_mc                                            =   0.           
     0:dxl_p18_mc                                              =   0.           
     0:dxw_p18_mc                                              =   0.           
     0:du0_p18_mc                                              =   0.           
     0:drdsw_p18_mc                                            =   0.           
     0:dcgsl_p18_mc                                            =   0.           
     0:dcgdl_p18_mc                                            =   0.           
     0:dcgso_p18_mc                                            =   0.           
     0:dcgdo_p18_mc                                            =   0.           
     0:dcjs_p18_mc                                             =   0.           
     0:dcjd_p18_mc                                             =   0.           
     0:dcjsws_p18_mc                                           =   0.           
     0:dcjswd_p18_mc                                           =   0.           
     0:dcjswgs_p18_mc                                          =   0.           
     0:dcjswgd_p18_mc                                          =   0.           
     0:vdd                                                     =   1.0500       
     0:min_time_step                                           = 100.0000p      
     0:wmin                                                    = 100.0000n      
     0:dvtnth_intra                                            =   0.           
     0:dvtpth_intra                                            =   0.           
     0:dvtn_intra                                              =   0.           
     0:dvtp_intra                                              =   0.           
     0:dr_intra                                                =  22.0000n      
     0:dt_intra                                                =   1.2000n      
     0:tphl                                                    =   0.           
     0:ptot                                                    =   0.           
     0:pdp                                                     =   0.           
     0:ileft                                                   =   0.           
     0:iright                                                  =   0.           
     0:ileft2                                                  =   0.           
     0:iright2                                                 =   0.           
     0:idiff                                                   =   0.           
     0:idiff2                                                  =   0.           
     1:w                                                       = 100.0000n      
     1:l                                                       =  30.0000n      
     1:as                                                      =   0.           
     1:ad                                                      =   0.           
     1:ps                                                      =   0.           
     1:pd                                                      =   0.           
     1:nrd                                                     =   0.           
     1:nrs                                                     =   0.           
     1:dtemp                                                   =   0.           
     1:nf                                                      =   1.0000       
     1:sa                                                      =   0.           
     1:sb                                                      =   0.           
     1:sd                                                      =   0.           
     1:ptwell                                                  =   0.           
     1:par                                                     =   1.0000       
     1:psw_acv_sign                                            =   1.0000       
     1:plnest                                                  =   1.0000       
     1:plorient                                                =   1.0000       
     1:pdevdops                                                =   1.0000       
     1:pdevlgeos                                               =   1.0000       
     1:pdevwgeos                                               =   1.0000       
     1:pld200                                                  =   1.0000       
     1:p_vta                                                   =   0.           
     1:sca                                                     =   0.           
     1:scb                                                     =   0.           
     1:scc                                                     =   0.           
     1:u0_mult                                                 =   1.0000       
     1:pre_layout_local                                        =  -1.0000       
     1:cnr_switch                                              =   0.           
     1:vsat_mult                                               =   1.0000       
     1:cf_cnr_n105                                             =   0.           
     1:l_scale                                                 =  22.6000n      
     1:w_scale                                                 =  62.0000n      
     1:as_scale                                                =   0.           
     1:ad_scale                                                =   0.           
     1:ps_scale                                                =   0.           
     1:pd_scale                                                =   0.           
     1:sa_scale                                                =   0.           
     1:sb_scale                                                =   0.           
     1:sd_scale                                                =   0.           
     1:pre_layout_f                                            =   0.           
     1:u0_factor                                               =   0.           
     1:acv_uncorr                                              =   0.           
     1:xl_n105                                                 =   2.0000n      
     1:xw_n105                                                 =   0.           
     1:u0_n105                                                 =  30.4000       
     1:rdsw_n105                                               = 340.5310       
     1:vth0_n105                                               = 442.1600m      
     1:k2_n105                                                 = -50.1610m      
     1:eta0_n105                                               = 580.7200m      
     1:rgatemod_n105                                           =   0.           
     1:mc_cnr_round                                            =   0.           
     1:mc_cnr_rnd                                              =   0.           
     1:cnr_rnd_skew                                            =   0.           
     1:cf_n1051                                                =   0.           
     1:cf_n105                                                 =   0.           
     1:vsat_n105                                               = 266.0000k      
     1:noia_n105                                               = 3.344e+41      
     1:noib_n105                                               = 2.950e+22      
     1:noic_n105                                               =  81.2500x      
     1:aigc_n105                                               =  11.3180m      
     1:aigsd_n105                                              =   8.7220m      
     1:xrcrg1_n105                                             =  12.0000       
     1:xrcrg2_n105                                             =   1.0000       
     1:xgl_n105                                                =  -2.0000n      
     1:xgw_n105                                                =  40.0000n      
     1:rshg_n105                                               =  11.0000       
     1:lvth0_n105                                              =   0.           
     1:pvth0_n105                                              =   0.           
     1:p_leff                                                  =  24.6000n      
     1:p_weff                                                  =  62.0000n      
     1:nwp_logic                                               =   0.           
     1:sca_f                                                   =   0.           
     1:scb_f                                                   =   0.           
     1:scc_f                                                   =   0.           
     1:kvth0we_total                                           =   1.8113u      
     1:kvth0we_n105                                            =   1.8113u      
     1:sti_logic                                               =   0.           
     1:sa_f                                                    =   0.           
     1:sb_f                                                    =   0.           
     1:sd_f                                                    =   0.           
     3:w                                                       = 100.0000n      
     3:l                                                       =  30.0000n      
     3:as                                                      =   0.           
     3:ad                                                      =   0.           
     3:ps                                                      =   0.           
     3:pd                                                      =   0.           
     3:nrd                                                     =   0.           
     3:nrs                                                     =   0.           
     3:dtemp                                                   =   0.           
     3:nf                                                      =   1.0000       
     3:sa                                                      =   0.           
     3:sb                                                      =   0.           
     3:sd                                                      =   0.           
     3:ptwell                                                  =   0.           
     3:par                                                     =   1.0000       
     3:psw_acv_sign                                            =   1.0000       
     3:plnest                                                  =   1.0000       
     3:plorient                                                =   1.0000       
     3:pdevdops                                                =   1.0000       
     3:pdevlgeos                                               =   1.0000       
     3:pdevwgeos                                               =   1.0000       
     3:pld200                                                  =   1.0000       
     3:p_vta                                                   =   0.           
     3:sca                                                     =   0.           
     3:scb                                                     =   0.           
     3:scc                                                     =   0.           
     3:u0_mult                                                 =   1.0000       
     3:pre_layout_local                                        =  -1.0000       
     3:cnr_switch                                              =   0.           
     3:vsat_mult                                               =   1.0000       
     3:cf_cnr_n105                                             =   0.           
     3:l_scale                                                 =  22.6000n      
     3:w_scale                                                 =  62.0000n      
     3:as_scale                                                =   0.           
     3:ad_scale                                                =   0.           
     3:ps_scale                                                =   0.           
     3:pd_scale                                                =   0.           
     3:sa_scale                                                =   0.           
     3:sb_scale                                                =   0.           
     3:sd_scale                                                =   0.           
     3:pre_layout_f                                            =   0.           
     3:u0_factor                                               =   0.           
     3:acv_uncorr                                              =   0.           
     3:xl_n105                                                 =   2.0000n      
     3:xw_n105                                                 =   0.           
     3:u0_n105                                                 =  30.4000       
     3:rdsw_n105                                               = 340.5310       
     3:vth0_n105                                               = 442.1600m      
     3:k2_n105                                                 = -50.1610m      
     3:eta0_n105                                               = 580.7200m      
     3:rgatemod_n105                                           =   0.           
     3:mc_cnr_round                                            =   0.           
     3:mc_cnr_rnd                                              =   0.           
     3:cnr_rnd_skew                                            =   0.           
     3:cf_n1051                                                =   0.           
     3:cf_n105                                                 =   0.           
     3:vsat_n105                                               = 266.0000k      
     3:noia_n105                                               = 3.344e+41      
     3:noib_n105                                               = 2.950e+22      
     3:noic_n105                                               =  81.2500x      
     3:aigc_n105                                               =  11.3180m      
     3:aigsd_n105                                              =   8.7220m      
     3:xrcrg1_n105                                             =  12.0000       
     3:xrcrg2_n105                                             =   1.0000       
     3:xgl_n105                                                =  -2.0000n      
     3:xgw_n105                                                =  40.0000n      
     3:rshg_n105                                               =  11.0000       
     3:lvth0_n105                                              =   0.           
     3:pvth0_n105                                              =   0.           
     3:p_leff                                                  =  24.6000n      
     3:p_weff                                                  =  62.0000n      
     3:nwp_logic                                               =   0.           
     3:sca_f                                                   =   0.           
     3:scb_f                                                   =   0.           
     3:scc_f                                                   =   0.           
     3:kvth0we_total                                           =   1.8113u      
     3:kvth0we_n105                                            =   1.8113u      
     3:sti_logic                                               =   0.           
     3:sa_f                                                    =   0.           
     3:sb_f                                                    =   0.           
     3:sd_f                                                    =   0.           
     9:w                                                       = 100.0000n      
     9:l                                                       =  30.0000n      
     9:as                                                      =   0.           
     9:ad                                                      =   0.           
     9:ps                                                      =   0.           
     9:pd                                                      =   0.           
     9:nrd                                                     =   0.           
     9:nrs                                                     =   0.           
     9:dtemp                                                   =   0.           
     9:nf                                                      =   1.0000       
     9:sa                                                      =   0.           
     9:sb                                                      =   0.           
     9:sd                                                      =   0.           
     9:ptwell                                                  =   0.           
     9:par                                                     =   1.0000       
     9:psw_acv_sign                                            =   1.0000       
     9:plnest                                                  =   1.0000       
     9:plorient                                                =   1.0000       
     9:pdevdops                                                =   1.0000       
     9:pdevlgeos                                               =   1.0000       
     9:pdevwgeos                                               =   1.0000       
     9:pld200                                                  =   1.0000       
     9:p_vta                                                   =   0.           
     9:sca                                                     =   0.           
     9:scb                                                     =   0.           
     9:scc                                                     =   0.           
     9:u0_mult                                                 =   1.0000       
     9:pre_layout_local                                        =  -1.0000       
     9:cnr_switch                                              =   0.           
     9:vsat_mult                                               =   1.0000       
     9:cf_cnr_p105                                             =   0.           
     9:l_scale                                                 =  22.6000n      
     9:w_scale                                                 =  62.0000n      
     9:as_scale                                                =   0.           
     9:ad_scale                                                =   0.           
     9:ps_scale                                                =   0.           
     9:pd_scale                                                =   0.           
     9:sa_scale                                                =   0.           
     9:sb_scale                                                =   0.           
     9:sd_scale                                                =   0.           
     9:pre_layout_f                                            =   0.           
     9:u0_factor                                               =   0.           
     9:acv_uncorr                                              =   0.           
     9:mc_cnr_round                                            =   0.           
     9:mc_cnr_rnd                                              =   0.           
     9:cnr_rnd_skew                                            =   0.           
     9:p_leff                                                  =  24.6000n      
[...]
     15:mc_cnr_rnd   =  0.3737      16:mc_cnr_rnd   =  0.2745    
     17:mc_cnr_rnd   =  0.1980    
 31:mc_cnr_round                 
     31:mc_cnr_rnd   =  0.3357      32:mc_cnr_rnd   = -0.3498    
 33:mc_cnr_round                 
     33:mc_cnr_rnd   = -1.2000E-02  34:mc_cnr_rnd   =  0.6854    
 35:mc_cnr_round                 
     35:mc_cnr_rnd   = -5.1923E-02  36:mc_cnr_rnd   = -0.1992    
     37:mc_cnr_rnd   = -0.1261      41:mc_cnr_rnd   =  0.4047    
     42:mc_cnr_rnd   =  0.2754      43:mc_cnr_rnd   = -0.3017    
 38:mc_cnr_round                 
     38:mc_cnr_rnd   =  0.4486      39:mc_cnr_rnd   =  0.5329    
     40:mc_cnr_rnd   =  0.2933      44:mc_cnr_rnd   = -0.2087    
     45:mc_cnr_rnd   =  0.3955      46:mc_cnr_rnd   =  0.7479    
 47:mc_cnr_round                 
     47:mc_cnr_rnd   = -0.2571      48:mc_cnr_rnd   =  0.1024    
 49:mc_cnr_round                 
     49:mc_cnr_rnd   =  3.3853E-02  50:mc_cnr_rnd   =  0.3758    
 51:mc_cnr_round                 
     51:mc_cnr_rnd   =  0.4817      53:mc_cnr_rnd   = -0.4383    
     55:mc_cnr_rnd   = -0.1492      57:mc_cnr_rnd   = -0.7019    
     59:mc_cnr_rnd   =  0.2310    
 52:mc_cnr_round                 
     52:mc_cnr_rnd   =   1.032      54:mc_cnr_rnd   =  0.3830    
     56:mc_cnr_rnd   = -0.3532      58:mc_cnr_rnd   =  0.8502    
     60:mc_cnr_rnd   = -0.4992    
 61:mc_cnr_round                 
     61:mc_cnr_rnd   = -0.2831      62:mc_cnr_rnd   = -0.1113    
     63:mc_cnr_rnd   = -0.3916      64:mc_cnr_rnd   =  0.3527    
 65:mc_cnr_round                 
     65:mc_cnr_rnd   = -0.6589      66:mc_cnr_rnd   =  0.5120    
     67:mc_cnr_rnd   = -3.6125E-02  68:mc_cnr_rnd   = -5.9472E-02
 69:mc_cnr_round                 
     69:mc_cnr_rnd   =  -1.171      70:mc_cnr_rnd   = -0.4138    
     71:mc_cnr_rnd   = -7.0218E-02
 72:mc_cnr_round                 
     72:mc_cnr_rnd   = -7.0582E-02  73:mc_cnr_rnd   = -0.4833    
     74:mc_cnr_rnd   = -8.1190E-02

 tphl=  21.6580p  targ=  93.3267n   trig=  93.3050n
 ptot=  50.8304u  from=   0.          to= 200.0000n
 pdp=   1.1009f
 ileft=   1.4214n
 iright=  10.8859u
 ileft2=   1.6697u
 iright2= -11.9067u
 idiff=   9.2398u    at=  93.3401n
             from=  93.3000n    to=  93.5000n
 idiff2=   4.4353u    at= 106.7508n
             from= 106.5000n    to= 106.8000n

          ***** job concluded

   *** monte carlo  index =          997 ***

       MONTE CARLO PARAMETER DEFINITIONS

 dvtnth_intra                    
 dvtpth_intra                    
 dvtn_intra                      
 dvtp_intra                      
 dr_intra                        
     29:r1           =  2.2103E-08  30:r1           =  2.1992E-08
 dt_intra                        
     29:tox1         =  1.1937E-09  30:tox1         =  1.2005E-09
 1:mc_cnr_round                  
     1:mc_cnr_rnd    = -0.5037      2:mc_cnr_rnd    = -0.1043    
     4:mc_cnr_rnd    =  9.3667E-02  5:mc_cnr_rnd    =  0.2319    
     6:mc_cnr_rnd    = -0.4189      7:mc_cnr_rnd    =  0.4400    
     8:mc_cnr_rnd    = -0.2854    
 3:mc_cnr_round                  
     3:mc_cnr_rnd    =  0.3736    
 9:mc_cnr_round                  
     9:mc_cnr_rnd    = -0.2022      10:mc_cnr_rnd   =  0.2180    
     11:mc_cnr_rnd   = -0.2546      12:mc_cnr_rnd   = -0.5453    
     13:mc_cnr_rnd   = -0.4313      14:mc_cnr_rnd   =  0.3524    
     15:mc_cnr_rnd   = -0.3538      16:mc_cnr_rnd   =  0.1681    
     17:mc_cnr_rnd   = -9.7026E-02
 31:mc_cnr_round                 
     31:mc_cnr_rnd   = -0.3688      32:mc_cnr_rnd   = -0.2788    
 33:mc_cnr_round                 
     33:mc_cnr_rnd   = -0.1024      34:mc_cnr_rnd   = -0.2123    
 35:mc_cnr_round                 
     35:mc_cnr_rnd   = -0.3384      36:mc_cnr_rnd   = -1.9307E-02
     37:mc_cnr_rnd   =  0.1606      41:mc_cnr_rnd   =  1.2627E-02
     42:mc_cnr_rnd   = -3.5005E-02  43:mc_cnr_rnd   = -0.5081    
 38:mc_cnr_round                 
     38:mc_cnr_rnd   = -0.2736      39:mc_cnr_rnd   =  0.1377    
     40:mc_cnr_rnd   =  0.4180      44:mc_cnr_rnd   =  6.5545E-02
     45:mc_cnr_rnd   = -0.5055      46:mc_cnr_rnd   =  0.2100    
 47:mc_cnr_round                 
     47:mc_cnr_rnd   = -0.2178      48:mc_cnr_rnd   =  1.0358E-02
 49:mc_cnr_round                 
     49:mc_cnr_rnd   =  0.2830      50:mc_cnr_rnd   =  0.3837    
 51:mc_cnr_round                 
     51:mc_cnr_rnd   =  0.3664      53:mc_cnr_rnd   =  0.4903    
     55:mc_cnr_rnd   = -1.9071E-02  57:mc_cnr_rnd   =  0.2094    
     59:mc_cnr_rnd   =  3.4550E-02
 52:mc_cnr_round                 
     52:mc_cnr_rnd   = -0.2539      54:mc_cnr_rnd   = -5.4368E-02
     56:mc_cnr_rnd   = -0.2094      58:mc_cnr_rnd   = -0.4042    
     60:mc_cnr_rnd   = -0.2037    
 61:mc_cnr_round                 
     61:mc_cnr_rnd   =  0.2442      62:mc_cnr_rnd   =  9.6587E-02
     63:mc_cnr_rnd   = -0.3260      64:mc_cnr_rnd   = -0.3820    
 65:mc_cnr_round                 
     65:mc_cnr_rnd   = -0.2146      66:mc_cnr_rnd   = -1.3661E-02
     67:mc_cnr_rnd   = -0.5186      68:mc_cnr_rnd   = -0.1300    
 69:mc_cnr_round                 
     69:mc_cnr_rnd   = -0.1072      70:mc_cnr_rnd   =  0.2454    
     71:mc_cnr_rnd   =  0.2789    
 72:mc_cnr_round                 
     72:mc_cnr_rnd   = -5.4442E-02  73:mc_cnr_rnd   = -0.9358    
     74:mc_cnr_rnd   = -0.4699    

 tphl=  21.1979p  targ=  93.3262n   trig=  93.3050n
 ptot=  50.8341u  from=   0.          to= 200.0000n
 pdp=   1.0776f
 ileft=   1.4310n
 iright=  10.8399u
 ileft2=   1.6869u
 iright2= -11.8651u
 idiff=   9.2028u    at=  93.3390n
             from=  93.3000n    to=  93.5000n
 idiff2=   4.3463u    at= 106.7512n
             from= 106.5000n    to= 106.8000n

          ***** job concluded

   *** monte carlo  index =          998 ***

       MONTE CARLO PARAMETER DEFINITIONS

 dvtnth_intra                    
 dvtpth_intra                    
 dvtn_intra                      
 dvtp_intra                      
 dr_intra                        
     29:r1           =  2.2038E-08  30:r1           =  2.1933E-08
 dt_intra                        
     29:tox1         =  1.1969E-09  30:tox1         =  1.2025E-09
 1:mc_cnr_round                  
     1:mc_cnr_rnd    =  1.8173E-02  2:mc_cnr_rnd    =  0.1047    
     4:mc_cnr_rnd    =  0.2540      5:mc_cnr_rnd    =  0.3432    
     6:mc_cnr_rnd    =  0.2211      7:mc_cnr_rnd    = -0.2474    
     8:mc_cnr_rnd    =  0.2284    
 3:mc_cnr_round                  
     3:mc_cnr_rnd    =  0.2795    
 9:mc_cnr_round                  
     9:mc_cnr_rnd    =  0.1019      10:mc_cnr_rnd   =  0.1208    
     11:mc_cnr_rnd   =  0.4958      12:mc_cnr_rnd   = -6.6706E-02
     13:mc_cnr_rnd   =  0.3983      14:mc_cnr_rnd   =  0.2103    
     15:mc_cnr_rnd   = -0.1438      16:mc_cnr_rnd   =  0.3067    
     17:mc_cnr_rnd   =  0.5864    
 31:mc_cnr_round                 
     31:mc_cnr_rnd   =  0.6040      32:mc_cnr_rnd   = -0.2254    
 33:mc_cnr_round                 
     33:mc_cnr_rnd   =  0.1187      34:mc_cnr_rnd   =  4.6819E-02
 35:mc_cnr_round                 
     35:mc_cnr_rnd   =  0.3908      36:mc_cnr_rnd   =  0.4034    
     37:mc_cnr_rnd   = -0.3302      41:mc_cnr_rnd   =  0.4368    
     42:mc_cnr_rnd   = -5.3591E-02  43:mc_cnr_rnd   = -1.4638E-02
 38:mc_cnr_round                 
     38:mc_cnr_rnd   = -0.3580      39:mc_cnr_rnd   =  2.6035E-02
     40:mc_cnr_rnd   =  4.6945E-02  44:mc_cnr_rnd   =  0.1854    
     45:mc_cnr_rnd   =  0.2641      46:mc_cnr_rnd   =  0.2563    
 47:mc_cnr_round                 
     47:mc_cnr_rnd   = -2.0546E-02  48:mc_cnr_rnd   = -0.2164    
 49:mc_cnr_round                 
     49:mc_cnr_rnd   =  0.1794      50:mc_cnr_rnd   = -0.2957    
 51:mc_cnr_round                 
     51:mc_cnr_rnd   = -0.6068      53:mc_cnr_rnd   = -0.3816    
     55:mc_cnr_rnd   = -0.5226      57:mc_cnr_rnd   =  0.4294    
     59:mc_cnr_rnd   =  0.5459    
 52:mc_cnr_round                 
     52:mc_cnr_rnd   =  0.4243      54:mc_cnr_rnd   = -0.5830    
     56:mc_cnr_rnd   =  0.1390      58:mc_cnr_rnd   =  0.1325    
     60:mc_cnr_rnd   = -0.1819    
 61:mc_cnr_round                 
     61:mc_cnr_rnd   = -0.1202      62:mc_cnr_rnd   =  0.1221    
     63:mc_cnr_rnd   = -0.3675      64:mc_cnr_rnd   = -0.1294    
 65:mc_cnr_round                 
     65:mc_cnr_rnd   =  0.3271      66:mc_cnr_rnd   =  0.4084    
     67:mc_cnr_rnd   =  0.2841      68:mc_cnr_rnd   =  0.1125    
 69:mc_cnr_round                 
     69:mc_cnr_rnd   =  5.8212E-03  70:mc_cnr_rnd   =  0.5550    
     71:mc_cnr_rnd   =  0.3233    
 72:mc_cnr_round                 
     72:mc_cnr_rnd   =  3.5519E-02  73:mc_cnr_rnd   = -6.0019E-02
     74:mc_cnr_rnd   =  0.2361    

 tphl=  21.1937p  targ=  93.3262n   trig=  93.3050n
 ptot=  50.8189u  from=   0.          to= 200.0000n
 pdp=   1.0770f
 ileft=   1.4250n
 iright=  10.8221u
 ileft2=   1.6817u
 iright2= -11.8728u
 idiff=   9.1855u    at=  93.3391n
             from=  93.3000n    to=  93.5000n
 idiff2=   4.3666u    at= 106.7998n
             from= 106.5000n    to= 106.8000n

          ***** job concluded

   *** monte carlo  index =          999 ***

       MONTE CARLO PARAMETER DEFINITIONS

 dvtnth_intra                    
 dvtpth_intra                    
 dvtn_intra                      
 dvtp_intra                      
 dr_intra                        
     29:r1           =  2.1949E-08  30:r1           =  2.2010E-08
 dt_intra                        
     29:tox1         =  1.2070E-09  30:tox1         =  1.1908E-09
 1:mc_cnr_round                  
     1:mc_cnr_rnd    =  0.3821      2:mc_cnr_rnd    = -0.3463    
     4:mc_cnr_rnd    =  0.3000      5:mc_cnr_rnd    =  0.4830    
     6:mc_cnr_rnd    =  0.4680      7:mc_cnr_rnd    = -0.1581    
     8:mc_cnr_rnd    =  0.2349    
 3:mc_cnr_round                  
     3:mc_cnr_rnd    =  0.3341    
 9:mc_cnr_round                  
     9:mc_cnr_rnd    = -0.3514      10:mc_cnr_rnd   = -0.2125    
     11:mc_cnr_rnd   =  0.1097      12:mc_cnr_rnd   =  0.7103    
     13:mc_cnr_rnd   =  0.9869      14:mc_cnr_rnd   = -0.5812    
     15:mc_cnr_rnd   = -0.1712      16:mc_cnr_rnd   = -0.7056    
     17:mc_cnr_rnd   = -0.2644    
 31:mc_cnr_round                 
     31:mc_cnr_rnd   = -0.2616      32:mc_cnr_rnd   =  0.1069    
 33:mc_cnr_round                 
     33:mc_cnr_rnd   = -0.2755      34:mc_cnr_rnd   = -4.4301E-02
 35:mc_cnr_round                 
     35:mc_cnr_rnd   =  0.1620      36:mc_cnr_rnd   =  0.2660    
     37:mc_cnr_rnd   = -0.4123      41:mc_cnr_rnd   =  8.3578E-02
     42:mc_cnr_rnd   =  1.8420E-03  43:mc_cnr_rnd   = -0.3328    
 38:mc_cnr_round                 
     38:mc_cnr_rnd   = -0.1706      39:mc_cnr_rnd   = -0.1484    
     40:mc_cnr_rnd   =  3.8876E-02  44:mc_cnr_rnd   = -0.5847    
     45:mc_cnr_rnd   = -0.5618      46:mc_cnr_rnd   =  0.5669    
 47:mc_cnr_round                 
     47:mc_cnr_rnd   = -0.7332      48:mc_cnr_rnd   = -0.4282    
 49:mc_cnr_round                 
     49:mc_cnr_rnd   =  0.1006      50:mc_cnr_rnd   =  1.1471E-02
 51:mc_cnr_round                 
     51:mc_cnr_rnd   =  0.2047      53:mc_cnr_rnd   =  0.1090    
     55:mc_cnr_rnd   = -9.7410E-03  57:mc_cnr_rnd   =  7.3550E-02
     59:mc_cnr_rnd   =  0.2968    
 52:mc_cnr_round                 
     52:mc_cnr_rnd   =  0.2125      54:mc_cnr_rnd   = -0.3914    
     56:mc_cnr_rnd   =  0.4484      58:mc_cnr_rnd   =  6.9689E-02
     60:mc_cnr_rnd   =  0.2910    
 61:mc_cnr_round                 
     61:mc_cnr_rnd   =  0.2024      62:mc_cnr_rnd   = -0.2836    
     63:mc_cnr_rnd   = -0.1119      64:mc_cnr_rnd   =  3.2948E-02
 65:mc_cnr_round                 
     65:mc_cnr_rnd   =  9.0102E-03  66:mc_cnr_rnd   =  0.1510    
     67:mc_cnr_rnd   = -0.3274      68:mc_cnr_rnd   =  3.4902E-03
 69:mc_cnr_round                 
     69:mc_cnr_rnd   = -8.2081E-02  70:mc_cnr_rnd   = -0.1361    
     71:mc_cnr_rnd   =  0.4908    
 72:mc_cnr_round                 
     72:mc_cnr_rnd   = -0.2376      73:mc_cnr_rnd   =  2.5908E-02
     74:mc_cnr_rnd   =  0.3624    

 tphl=  21.6308p  targ=  93.3266n   trig=  93.3050n
 ptot=  50.8258u  from=   0.          to= 200.0000n
 pdp=   1.0994f
 ileft=   1.4156n
 iright=  10.9234u
 ileft2=   1.6566u
 iright2= -11.9378u
 idiff=   9.2989u    at=  93.3372n
             from=  93.3000n    to=  93.5000n
 idiff2=   4.4981u    at= 106.7519n
             from= 106.5000n    to= 106.8000n

          ***** job concluded

   *** monte carlo  index =         1000 ***

       MONTE CARLO PARAMETER DEFINITIONS

 dvtnth_intra                    
 dvtpth_intra                    
 dvtn_intra                      
 dvtp_intra                      
 dr_intra                        
     29:r1           =  2.1935E-08  30:r1           =  2.2049E-08
 dt_intra                        
     29:tox1         =  1.1983E-09  30:tox1         =  1.1989E-09
 1:mc_cnr_round                  
     1:mc_cnr_rnd    = -0.4150      2:mc_cnr_rnd    =  0.3866    
     4:mc_cnr_rnd    = -0.1752      5:mc_cnr_rnd    =  1.8563E-02
     6:mc_cnr_rnd    = -3.1423E-02  7:mc_cnr_rnd    =  0.1141    
     8:mc_cnr_rnd    = -3.5985E-03
 3:mc_cnr_round                  
     3:mc_cnr_rnd    = -0.1391    
 9:mc_cnr_round                  
     9:mc_cnr_rnd    = -0.2587      10:mc_cnr_rnd   = -5.1117E-03
     11:mc_cnr_rnd   =  7.0181E-02  12:mc_cnr_rnd   =  0.3691    
     13:mc_cnr_rnd   =  0.4379      14:mc_cnr_rnd   = -0.3288    
     15:mc_cnr_rnd   = -0.2988      16:mc_cnr_rnd   =  9.4796E-02
     17:mc_cnr_rnd   = -0.4429    
 31:mc_cnr_round                 
     31:mc_cnr_rnd   =  0.3627      32:mc_cnr_rnd   = -0.3144    
 33:mc_cnr_round                 
     33:mc_cnr_rnd   =  0.8449      34:mc_cnr_rnd   = -0.4938    
 35:mc_cnr_round                 
     35:mc_cnr_rnd   = -0.1356      36:mc_cnr_rnd   =  0.4124    
     37:mc_cnr_rnd   = -0.3226      41:mc_cnr_rnd   =  7.1226E-02
     42:mc_cnr_rnd   = -9.6844E-02  43:mc_cnr_rnd   = -7.5263E-02
 38:mc_cnr_round                 
     38:mc_cnr_rnd   =  0.4768      39:mc_cnr_rnd   =  0.3362    
     40:mc_cnr_rnd   = -0.2419      44:mc_cnr_rnd   = -0.2191    
     45:mc_cnr_rnd   = -9.8032E-02  46:mc_cnr_rnd   =  4.6521E-02
 47:mc_cnr_round                 
     47:mc_cnr_rnd   =  0.3498      48:mc_cnr_rnd   =  9.7240E-02
 49:mc_cnr_round                 
     49:mc_cnr_rnd   =  0.3305      50:mc_cnr_rnd   =  5.6816E-03
 51:mc_cnr_round                 
     51:mc_cnr_rnd   =  7.1789E-02  53:mc_cnr_rnd   =  0.1919    
     55:mc_cnr_rnd   =  0.2387      57:mc_cnr_rnd   =  0.1408    
     59:mc_cnr_rnd   =  0.3525    
 52:mc_cnr_round                 
     52:mc_cnr_rnd   =   1.035      54:mc_cnr_rnd   =  0.1641    
     56:mc_cnr_rnd   =  7.5671E-03  58:mc_cnr_rnd   = -4.3925E-04
     60:mc_cnr_rnd   = -9.6088E-02
 61:mc_cnr_round                 
     61:mc_cnr_rnd   = -0.3552      62:mc_cnr_rnd   =  8.5914E-02
     63:mc_cnr_rnd   =  4.5625E-02  64:mc_cnr_rnd   = -0.1688    
 65:mc_cnr_round                 
     65:mc_cnr_rnd   = -0.4404      66:mc_cnr_rnd   =  0.3418    
     67:mc_cnr_rnd   =  8.4506E-02  68:mc_cnr_rnd   =  0.3141    
 69:mc_cnr_round                 
     69:mc_cnr_rnd   =  0.3998      70:mc_cnr_rnd   =  0.1083    
     71:mc_cnr_rnd   = -4.0707E-02
 72:mc_cnr_round                 
     72:mc_cnr_rnd   = -0.2646      73:mc_cnr_rnd   = -0.2116    
     74:mc_cnr_rnd   =  3.0152E-02

 tphl=  21.6396p  targ=  93.3266n   trig=  93.3050n
 ptot=  50.8285u  from=   0.          to= 200.0000n
 pdp=   1.0999f
 ileft=   1.4191n
 iright=  10.9006u
 ileft2=   1.6646u
 iright2= -11.9194u
 idiff=   9.2774u    at=  93.3375n
             from=  93.3000n    to=  93.5000n
 idiff2=   4.4598u    at= 106.7517n
             from= 106.5000n    to= 106.8000n

   meas_variable = tphl
   mean  =  21.2503p  varian = 1.777e-26
   sigma = 133.3040f  avgdev =  79.0931f
   max   =  21.6700p  min    =  21.1500p
    1-sigma = 133.3040f median =  21.2100p

   meas_variable = ptot
   mean  =  50.8238u  varian = 165.1010a
   sigma =  12.8492n  avgdev =  10.5494n
   max   =  50.8600u  min    =  50.7900u
    1-sigma =  12.8492n median =  50.8200u

   meas_variable = pdp
   mean  =   1.0800f  varian =   0.     
   sigma =   6.8200a  avgdev =   4.0378a
   max   =   1.1010f  min    =   1.0740f
    1-sigma =   6.8200a median =   1.0780f

   meas_variable = ileft
   mean  =   1.4217n  varian = 3.535e-23
   sigma =   5.9453p  avgdev =   4.7574p
   max   =   1.4390n  min    =   1.4000n
    1-sigma =   5.9453p median =   1.4220n

   meas_variable = iright
   mean  =  10.8686u  varian =   1.9897f
   sigma =  44.6062n  avgdev =  35.3871n
   max   =  11.0700u  min    =  10.7200u
    1-sigma =  44.6062n median =  10.8700u

   meas_variable = ileft2
   mean  =   1.6699u  varian = 124.8468a
   sigma =  11.1735n  avgdev =   8.8836n
   max   =   1.7080u  min    =   1.6350u
    1-sigma =  11.1735n median =   1.6700u

   meas_variable = iright2
   mean  = -11.8989u  varian = 714.9914a
   sigma =  26.7393n  avgdev =  21.2148n
   max   = -11.8100u  min    = -12.0000u
    1-sigma =  26.7393n median = -11.9000u

   meas_variable = idiff
   mean  =   9.2333u  varian =   1.9831f
   sigma =  44.5323n  avgdev =  35.5450n
   max   =   9.4330u  min    =   9.0790u
    1-sigma =  44.5323n median =   9.2310u

   meas_variable = idiff2
   mean  =   4.4214u  varian =   2.8555f
   sigma =  53.4367n  avgdev =  42.7293n
   max   =   4.6240u  min    =   4.2400u
    1-sigma =  53.4367n median =   4.4230u

          ***** job concluded
1****** HSPICE -- I-2013.12-SP1-1 32-BIT (Mar 31 2014) RHEL32 ******            
 ******  
 .temp 110

 ****** job statistics summary tnom=  25.000 temp=  25.000 ******
  
  
 ******  Machine Information  ******
 CPU:
 model name	: Intel(R) Xeon(TM) CPU 2.80GHz
 cpu MHz	: 2793.212
  
 OS:
 Linux version 2.6.18-308.13.1.el5 (mockbuild@builder10.centos.org) (gcc version 4.1.2 20080704 (Red Hat 4.1.2-52)) #1 SMP Tue Aug 21 17:10:18 EDT 2012


  ******  HSPICE Threads Information  ******

  Command Line Threads Count :     1
  Available CPU Count        :     1
  Actual Threads Count       :     1


  ******  Circuit Statistics  ******
  # nodes       =      48 # elements   =      76
  # resistors   =       0 # capacitors =       0 # inductors   =       0
  # mutual_inds =       0 # vccs       =       0 # vcvs        =       0
  # cccs        =       0 # ccvs       =       0 # volt_srcs   =       7
  # curr_srcs   =       0 # diodes     =       0 # bjts        =       0
  # jfets       =       0 # mosfets    =      61 # U elements  =       0
  # T elements  =       0 # W elements =       0 # B elements  =       0
  # S elements  =       0 # P elements =       0 # va device   =       8
  # vector_srcs =       0 # N elements =       0


  ******  Runtime Statistics (seconds)  ******

  analysis           time    # points   tot. iter  conv.iter
  op point           0.00           1           0
  transient       2873.88 2.00000E+09     8570115     1997170 rev=    190892
  readin             0.11
  errchk             0.17
  setup              0.01
  output             1.07


           peak memory used        124.50 megabytes
           total cpu time         2877.85 seconds
           total elapsed time     4508.77 seconds
           job started at     14:53:01 06/20/2017
           job ended   at     16:08:10 06/20/2017



>info:         ***** hspice job concluded
 lic: Release hspice token(s) 
 lic: total license checkout elapse time:        1.28(s)

			pVA malloc        0.11461 Mbytes          865 times
			pVA calloc        3.37996 Mbytes         2314 times
			pVA realloc       0.00074 Mbytes           36 times
			pVA valloc        0.00000 Mbytes            0 times
			pVA alloca        0.00000 Mbytes            0 times

			pVA TOT-MEM       3.49531 Mbytes         3215 times
			pVA free                                  542 times
			pVA strdup        0.00000 Mbytes            0 times


pVA concluded on Tue Jun 20 16:08:10 2017	GTM/In-use: 3.2500/0.3332 MB

