$DATA1 SOURCE='HSPICE' VERSION='I-2013.12-SP1-1 32-BIT'
$OPTION MEASFORM=1
.TITLE ' '
wp_min ptot tphl tplh delay pdp temper alter#
1.000e-07  1.783e-07  5.878e-12 -3.349e-13  5.878e-12  1.048e-18  110.0000 1
6.444e-07  5.498e-07  2.371e-12  4.385e-12  4.385e-12  2.411e-18  110.0000 1
1.189e-06  9.895e-07  1.976e-12  6.589e-12  6.589e-12  6.520e-18  110.0000 1
1.733e-06  1.404e-06  1.623e-12  8.255e-12  8.255e-12  1.159e-17  110.0000 1
2.278e-06  1.819e-06  1.227e-12  9.811e-12  9.811e-12  1.785e-17  110.0000 1
2.822e-06  2.214e-06  1.276e-12  1.188e-11  1.188e-11  2.631e-17  110.0000 1
3.367e-06  2.593e-06  9.413e-13  1.381e-11  1.381e-11  3.581e-17  110.0000 1
3.911e-06  2.965e-06  8.708e-13  1.569e-11  1.569e-11  4.653e-17  110.0000 1
4.456e-06  3.325e-06  9.765e-13  1.751e-11  1.751e-11  5.822e-17  110.0000 1
5.000e-06  3.690e-06  9.297e-13  1.920e-11  1.920e-11  7.084e-17  110.0000 1
