$DATA1 SOURCE='HSPICE' VERSION='I-2013.12-SP1-1 32-BIT'
$OPTION MEASFORM=1
.TITLE '****summer 2017 necrl stt latch wite path monte carlo analysis****'
index 1:vdvtn@dvtn_intra 5:vdvtn@dvtn_intra 2:vdvtn@dvtn_intra 3:vdvtp@dvtp_intra 6:vdvtp@dvtp_intra 4:vdvtp@dvtp_intra 7:r1@dr_intra 8:r1@dr_intra 7:tox1@dt_intra 8:tox1@dt_intra 9:mc_cnr_rnd@9:mc_cnr_round 10:mc_cnr_rnd@10:mc_cnr_round 11:mc_cnr_rnd@11:mc_cnr_round 12:mc_cnr_rnd@12:mc_cnr_round 13:mc_cnr_rnd@13:mc_cnr_round 14:mc_cnr_rnd@14:mc_cnr_round ntrh ntdh1 ntrl1 ntdl ntdh2 ntrl2 temper alter#
1  2.408e-02  2.884e-03  4.661e-03  1.010e-02  2.788e-03  1.732e-02  2.301e-08  2.169e-08  8.941e-10  1.016e-09   -0.3526    0.2628   -0.4049    0.3717    0.3675   -0.3516    3.1416    3.1416  8.844e-22 -4.786e-22    3.1416  8.844e-22  110.0000 1
2 -6.958e-03 -3.397e-02 -1.410e-02  2.291e-02 -1.926e-02  4.093e-03  1.995e-08  2.265e-08  1.064e-09  1.047e-09   -0.1130   -0.7910 -9.180e-03    0.4226    0.1816   -0.3755    3.1416    3.1416 -1.910e-18  3.103e-24    3.1416 -1.910e-18  110.0000 1
3 -5.042e-03 -1.888e-02  2.023e-02 -5.503e-03 -2.299e-02 -1.437e-02  2.210e-08  2.146e-08  1.049e-09  1.028e-09    0.2688 -8.206e-02   -0.7323 -7.671e-02    0.6821 -5.626e-02    3.1416    3.1416 -1.652e-20 -1.503e-25    3.1416 -1.652e-20  110.0000 1
4  2.986e-02 -1.604e-02 -2.235e-03  2.711e-02  4.094e-04 -3.213e-03  2.151e-08  2.110e-08  1.185e-09  9.215e-10   -0.2869    0.1682 -6.765e-02   -0.2085   -0.2451    0.1329    3.1416    3.1416 -4.079e-21  4.679e-24    3.1416 -4.079e-21  110.0000 1
5  3.832e-02 -7.484e-03  9.408e-04  1.181e-02 -3.823e-03  2.177e-03  2.542e-08  1.686e-08  8.785e-10  8.717e-10    0.3681   -0.6111   -0.3695    0.5093    0.2121   -0.1991    3.1416    3.1416  7.873e-17  5.214e-22    3.1416  7.873e-17  110.0000 1
6 -7.122e-03 -1.054e-02 -3.042e-02  1.014e-02  3.880e-02  5.078e-03  2.021e-08  2.180e-08  1.108e-09  1.120e-09   -0.1321    0.2474    0.3204    0.3523  6.447e-02 -6.158e-02    3.1416    3.1416 -5.313e-21 -4.475e-23    3.1416 -5.313e-21  110.0000 1
7 -4.509e-03  1.725e-02  2.406e-02 -2.073e-03 -3.917e-02  5.019e-03  1.931e-08  2.219e-08  9.813e-10  9.846e-10    0.1698    0.6836    0.1004  7.329e-02    0.1979 -4.963e-03    3.1416    3.1416  1.594e-18 -8.226e-23    3.1416  1.594e-18  110.0000 1
8  1.259e-02  7.464e-03  5.892e-03  9.849e-03 -1.556e-02 -1.088e-03  2.135e-08  2.017e-08  1.130e-09  1.267e-09  1.803e-02 -9.349e-02  5.797e-02    0.1469    0.1146  3.341e-03    3.1416    3.1416  7.435e-17 -1.492e-22    0.8350  7.435e-17  110.0000 1
9  3.485e-02  8.197e-04  1.953e-02 -2.354e-03 -9.366e-03  2.069e-02  2.038e-08  2.660e-08  1.098e-09  8.922e-10   -0.2584  7.273e-02    0.1671 -5.645e-03   -0.2195    0.2950    3.1416    3.1416  2.204e-18 -1.497e-25    3.1416  2.204e-18  110.0000 1
10  8.307e-03 -3.805e-03  2.632e-02  6.407e-03 -1.721e-02  1.916e-02  2.280e-08  1.864e-08  1.036e-09  8.545e-10  3.720e-02 -1.236e-02  9.200e-02   -0.2633    0.6758    0.2785    3.1416    3.1416 -1.802e-18 -2.356e-22    3.1416 -1.802e-18  110.0000 1
11  2.046e-02 -3.788e-02 -1.010e-03 -2.888e-02  2.390e-02  1.933e-02  2.166e-08  2.094e-08  9.786e-10  1.172e-09    0.4163   -0.4174   -0.2350    0.3212    0.5580    0.4815    3.1416    3.1416 -1.808e-22 -1.137e-22    0.7823 -1.808e-22  110.0000 1
12 -2.352e-02 -4.387e-03  2.170e-02 -2.921e-02  8.688e-03  2.843e-02  2.571e-08  1.776e-08  1.047e-09  9.213e-10    0.1907   -0.2157   -0.6731  7.316e-02 -3.811e-02   -0.2444    3.1416    3.1416  1.485e-23  1.576e-25    3.1416  1.485e-23  110.0000 1
13  8.066e-03  4.558e-03 -2.795e-02  2.126e-02  1.459e-02  1.616e-02  2.492e-08  2.620e-08  1.089e-09  9.703e-10  9.671e-02   -0.4450  6.241e-02    0.2124    0.2028    0.1667    3.1416    3.1416 -9.113e-22    0.    0.6734 -9.113e-22  110.0000 1
14 -2.261e-02  1.563e-02 -7.557e-03 -1.870e-02  2.929e-02 -2.272e-02  2.317e-08  2.210e-08  1.088e-09  9.816e-10  1.388e-02    0.3066  2.018e-02 -4.870e-03    0.1916   -0.2676    3.1416    3.1416  5.476e-17  1.289e-25    3.1416  5.476e-17  110.0000 1
15 -2.008e-02 -2.266e-02 -9.515e-03 -1.770e-02 -1.625e-02  9.577e-03  2.127e-08  2.397e-08  8.760e-10  7.923e-10 -8.763e-03   -0.2326    0.3242    0.1709   -0.4857    0.3591    3.1416    3.1416  8.225e-17 -1.659e-22    3.1416  8.225e-17  110.0000 1
16  4.605e-03 -5.737e-03  1.231e-02  1.509e-02 -2.220e-03  1.414e-02  2.345e-08  2.348e-08  8.485e-10  1.020e-09   -0.5017  1.368e-02    0.1374   -0.1912    0.1290    0.2282    3.1416    3.1416 -8.525e-23 -1.004e-21    0.7431 -8.525e-23  110.0000 1
17 -2.296e-02  3.563e-02  3.025e-02  3.387e-04  2.528e-02 -1.235e-02  1.956e-08  2.325e-08  1.086e-09  1.088e-09   -0.1248   -0.6080  4.051e-02    0.3724   -0.8328    0.1854    3.1416    3.1416 -5.453e-21  8.571e-20    3.1416 -5.453e-21  110.0000 1
18  1.489e-02 -1.279e-02 -2.041e-03 -1.495e-02 -1.141e-02  1.755e-02  2.081e-08  2.350e-08  9.773e-10  1.241e-09    0.3227   -0.1603   -0.6670    0.3657    0.2637   -0.3926    3.1416    3.1416  9.324e-19  3.727e-24    0.6658  9.324e-19  110.0000 1
19 -2.966e-02  5.700e-03 -1.787e-03  1.931e-02 -6.316e-03 -4.899e-03  2.084e-08  2.778e-08  9.057e-10  1.000e-09   -0.1792   -0.1877    0.1971    0.4250    0.2160   -0.1465    3.1416    3.1416  8.172e-21 -3.333e-20    0.6477  8.172e-21  110.0000 1
20  1.752e-02 -3.737e-02 -2.713e-02 -4.881e-03  2.870e-04  1.382e-02  2.433e-08  2.298e-08  1.008e-09  1.023e-09    0.1880  4.067e-02   -0.1912    0.2573    0.6929   -0.3331    3.1416    3.1416  1.073e-20 -4.821e-26    0.8281  1.073e-20  110.0000 1
21 -2.965e-02  1.408e-02 -1.229e-02  2.077e-04 -9.507e-04  3.484e-02  2.238e-08  2.180e-08  1.034e-09  9.164e-10   -0.4696 -3.771e-02    0.1096 -5.580e-02    0.3861  6.236e-02    3.1416    3.1416  7.105e-22 -6.916e-22    3.1416  7.105e-22  110.0000 1
22  7.673e-03  1.365e-02  4.307e-03 -1.523e-03  1.838e-02  1.185e-02  2.543e-08  2.288e-08  1.093e-09  1.046e-09    0.4225   -0.1649   -0.2095   -0.2523 -8.417e-02   -0.3726    3.1416    3.1416  2.093e-20    0.    0.7505  2.093e-20  110.0000 1
23 -2.574e-03 -3.371e-02  5.226e-03  1.036e-02  4.987e-03  1.797e-02  2.572e-08  2.138e-08  8.492e-10  8.609e-10   -0.1009   -0.2245 -7.233e-02   -0.1575    0.1029   -0.1093    3.1416    3.1416 -9.122e-20 -1.501e-22    3.1416 -9.122e-20  110.0000 1
24  5.517e-03  2.792e-02 -1.413e-02  7.569e-03  1.256e-02  1.477e-02  1.856e-08  2.195e-08  1.109e-09  1.254e-09 -3.658e-02  5.165e-02   -0.5738    0.2306    0.8243  2.834e-02    3.1416    3.1416  4.410e-19  6.546e-20    0.7916  4.410e-19  110.0000 1
25 -3.073e-02 -2.558e-02 -2.114e-02  1.321e-03  7.681e-03 -2.341e-02  2.276e-08  2.308e-08  9.061e-10  9.327e-10    0.3393   -0.1561   -0.3646   -0.4689 -2.103e-02 -3.085e-02    3.1416    3.1416  1.961e-17 -7.621e-24    3.1416  1.961e-17  110.0000 1
26 -4.750e-03  1.605e-02  1.073e-03  5.813e-03 -4.345e-03  7.294e-03  1.988e-08  2.241e-08  1.265e-09  1.042e-09   -0.3058    0.4492   -0.2109   -0.1802    0.4267   -0.1932    3.1416    3.1416 -2.483e-19 -3.420e-25    3.1416 -2.483e-19  110.0000 1
27  9.845e-03  2.503e-02  1.335e-02 -2.423e-03  1.262e-02  9.580e-03  1.722e-08  2.083e-08  9.310e-10  9.532e-10    0.1645  8.786e-02    0.2174    0.2592 -5.948e-02    0.1504    3.1416    3.1416  1.636e-18 -1.325e-21    3.1416  1.636e-18  110.0000 1
28 -2.040e-02 -3.542e-03 -1.524e-02  1.978e-02 -8.421e-03 -8.636e-03  1.978e-08  2.023e-08  7.511e-10  9.505e-10    0.1704  3.829e-02 -1.228e-02   -0.3567   -0.1320   -0.1949    3.1416    3.1416  1.674e-18 -2.643e-21    3.1416  1.674e-18  110.0000 1
29 -3.394e-02 -3.249e-03 -4.451e-03  8.439e-04  1.793e-02 -4.672e-03  2.321e-08  2.356e-08  1.069e-09  8.872e-10 -2.803e-02 -9.397e-02    0.2760    0.1219    0.1379 -3.095e-02    3.1416    3.1416  4.565e-21  1.001e-24    3.1416  4.565e-21  110.0000 1
30 -1.170e-02  6.801e-03  3.299e-03  3.156e-02  9.043e-03  4.815e-03  2.102e-08  2.351e-08  9.368e-10  9.213e-10    0.1405   -0.3064    0.3957   -0.5407   -0.4298   -0.1291    3.1416    3.1416  7.949e-17  9.934e-24    3.1416  7.949e-17  110.0000 1
31  1.875e-02 -4.885e-02  8.335e-03  5.136e-03 -6.037e-03  3.005e-02  2.155e-08  2.048e-08  1.078e-09  8.836e-10   -0.1833   -0.6812 -2.529e-04    0.5461    0.2095   -0.1190    3.1416    3.1416  3.552e-21 -6.189e-23    3.1416  3.552e-21  110.0000 1
32 -1.628e-02 -1.046e-03  2.735e-03 -9.613e-03  6.232e-03  3.709e-02  1.911e-08  2.050e-08  1.103e-09  1.223e-09    0.4183   -0.5379   -0.1465   -0.1522    0.1874 -7.633e-03    3.1416    3.1416  7.830e-17 -3.578e-21    3.1416  7.830e-17  110.0000 1
33 -2.280e-02 -1.641e-02 -3.380e-02  1.560e-02 -3.135e-03  4.557e-02  2.432e-08  1.816e-08  1.031e-09  9.379e-10   -0.1389    0.1730    0.1758   -0.4213   -0.2198   -0.2475    3.1416    3.1416 -2.989e-20 -1.301e-25    3.1416 -2.989e-20  110.0000 1
34  2.754e-03 -3.796e-03  2.864e-02  2.109e-02 -4.229e-03  8.952e-03  1.604e-08  2.227e-08  1.012e-09  9.097e-10   -0.1521    0.2785   -0.2018    0.2692 -9.511e-02    0.2765    3.1416    3.1416  3.097e-19 -1.027e-21    3.1416  3.097e-19  110.0000 1
35  4.182e-02  6.917e-03 -1.911e-02 -4.102e-03 -2.764e-02  2.204e-02  2.449e-08  1.950e-08  1.110e-09  1.002e-09    0.2535  3.840e-02 -7.630e-02   -0.1249    0.6406  7.392e-02    3.1416    3.1416  1.980e-19 -4.783e-27    3.1416  1.980e-19  110.0000 1
36  1.206e-03 -1.293e-02 -2.109e-03 -6.976e-03  7.552e-04 -1.047e-02  2.476e-08  2.515e-08  1.209e-09  1.075e-09   -0.4684   -0.5522    0.1934    0.6261    0.3234    0.2766    0.7790    3.1416  1.520e-20    0.    0.6824  1.520e-20  110.0000 1
37  6.913e-03  1.174e-02 -2.880e-02  2.369e-02  1.178e-02  2.626e-03  2.162e-08  2.514e-08  1.071e-09  9.292e-10   -0.4749    0.4721    0.2692   -0.2080   -0.2277    0.2263    3.1416    3.1416 -1.070e-18 -5.374e-23    3.1416 -1.070e-18  110.0000 1
38  3.963e-03 -3.471e-02 -2.851e-02 -1.549e-02  3.179e-02 -1.027e-03  2.396e-08  2.551e-08  9.054e-10  7.977e-10   -0.1403    0.1598   -0.3664 -8.846e-02   -0.2020   -0.3851    3.1416    3.1416  2.973e-20 -1.340e-22    0.8617  2.973e-20  110.0000 1
39 -9.314e-03  7.211e-04  4.006e-03  4.429e-05  2.725e-03  1.942e-02  2.379e-08  2.352e-08  1.126e-09  1.145e-09    0.3128    0.5050    0.2449    0.5305    0.1017    0.5916    3.1416    3.1416  7.032e-19  3.227e-27    0.6954  7.032e-19  110.0000 1
40 -3.404e-03  8.962e-03  3.970e-03 -2.901e-04  1.745e-02 -1.565e-02  2.259e-08  1.936e-08  1.035e-09  1.168e-09 -1.081e-02   -0.6546    0.6360    0.3567    0.1822    0.6395    3.1416    3.1416  2.022e-19  5.765e-25    3.1416  2.022e-19  110.0000 1
41  1.850e-03 -1.645e-02  2.719e-02  6.710e-03 -3.689e-02  3.647e-04  2.111e-08  2.117e-08  1.026e-09  9.554e-10   -0.6446 -5.792e-03   -0.2689   -0.2620  4.796e-02   -0.4516    3.1416    3.1416 -8.562e-22 -4.399e-21    3.1416 -8.562e-22  110.0000 1
42 -8.996e-03 -1.462e-02  3.757e-02 -1.649e-02  1.739e-02 -9.736e-03  1.988e-08  2.241e-08  1.109e-09  8.448e-10    0.4436    0.1699    0.8609    0.4710    0.3386    0.2445    3.1416    3.1416 -2.614e-19  7.170e-24    3.1416 -2.614e-19  110.0000 1
43 -1.260e-02 -9.538e-03  2.796e-02  2.345e-02  1.503e-03  6.163e-03  2.069e-08  2.352e-08  1.124e-09  1.092e-09 -9.423e-02 -5.424e-02  6.117e-02 -6.132e-02    0.2238  4.152e-03    3.1416    3.1416  5.783e-20 -2.220e-22    0.8988  5.783e-20  110.0000 1
44  1.026e-03 -9.205e-03 -5.949e-04 -2.112e-02  7.123e-03  5.525e-03  2.559e-08  2.066e-08  9.629e-10  8.798e-10   -0.2720    0.4222   -0.5476   -0.4791   -0.2601  3.762e-02    3.1416    3.1416 -1.714e-19  1.411e-25    3.1416 -1.714e-19  110.0000 1
45 -4.595e-03  6.585e-03  8.014e-03  5.825e-03 -9.158e-03 -3.608e-02  1.922e-08  2.671e-08  8.708e-10  1.190e-09    0.1211    0.3125   -0.2556   -0.3661    0.3654   -0.2323    3.1416    3.1416  4.328e-21  1.189e-15    0.6016  4.328e-21  110.0000 1
46 -2.234e-02  2.653e-02 -1.403e-02 -3.309e-03  6.752e-04  1.117e-02  2.035e-08  2.513e-08  1.147e-09  1.075e-09  9.157e-02   -0.2724   -0.2350 -6.273e-02    0.1167    0.3078    3.1416    3.1416 -2.853e-20  1.865e-25    0.7875 -2.853e-20  110.0000 1
47  2.045e-04 -3.848e-03 -8.769e-03 -5.185e-03  4.146e-02  6.629e-03  2.307e-08  2.655e-08  1.095e-09  1.064e-09    0.1610    0.1150    0.1772  2.057e-02   -0.3147   -0.2633    3.1416    3.1416  8.040e-19  2.173e-25    0.6017  8.040e-19  110.0000 1
48 -6.191e-03 -2.723e-02 -6.821e-04 -6.649e-03 -2.223e-03  1.448e-02  1.645e-08  2.139e-08  9.621e-10  1.152e-09 -3.266e-03   -0.3010    0.3608    0.2638   -0.3286   -0.1233    3.1416    3.1416 -7.816e-22 -4.454e-20    3.1416 -7.816e-22  110.0000 1
49  2.108e-02 -1.870e-03 -3.457e-02  2.061e-02 -2.277e-03  1.040e-02  2.289e-08  2.349e-08  1.070e-09  8.059e-10  9.401e-02    0.2882 -8.265e-02   -0.1410    0.2351   -0.2915    3.1416    3.1416  7.666e-21  2.527e-27    3.1416  7.666e-21  110.0000 1
50  3.455e-02 -1.183e-03 -1.902e-03  1.217e-02  9.324e-03  3.274e-03  1.882e-08  2.254e-08  9.016e-10  8.314e-10   -0.1531 -8.336e-02    0.1899   -0.1612  1.574e-02   -0.4390    3.1416    3.1416  4.866e-18  1.786e-16    3.1416  4.866e-18  110.0000 1
51 -9.455e-03  1.144e-02 -1.567e-02  2.363e-02 -5.770e-03 -3.295e-03  2.036e-08  2.403e-08  1.060e-09  1.184e-09   -0.1799   -0.2786  7.316e-02    0.2580    0.1635    0.1400    3.1416    3.1416  1.457e-20 -1.974e-24    0.7163  1.457e-20  110.0000 1
52  1.619e-02 -3.695e-03  8.539e-04  9.712e-03 -2.309e-03  9.840e-03  2.073e-08  1.765e-08  8.652e-10  1.169e-09   -0.4423    0.1180  2.864e-02   -0.2017   -0.8011    0.1159    3.1416    3.1416  1.119e-17 -9.118e-23    3.1416  1.119e-17  110.0000 1
53  4.131e-04  3.238e-02  2.651e-02 -2.342e-03  4.260e-03  1.316e-02  2.064e-08  2.339e-08  8.826e-10  1.016e-09 -4.085e-02  9.731e-02  1.606e-02   -0.1916   -0.2867  2.385e-02    3.1416    3.1416  1.173e-21 -2.516e-20    3.1416  1.173e-21  110.0000 1
54 -9.851e-05 -8.411e-03 -8.481e-03  2.035e-02 -5.286e-03 -5.961e-03  2.211e-08  1.985e-08  1.055e-09  1.076e-09 -2.101e-02   -0.2209    0.3588   -0.7334 -9.504e-03   -0.1887    3.1416    3.1416  9.170e-20  1.056e-18    3.1416  9.170e-20  110.0000 1
55  1.021e-02  2.607e-03 -3.758e-03  4.538e-03 -7.614e-03  1.237e-02  2.401e-08  2.376e-08  1.021e-09  1.126e-09    0.1398   -0.6714   -0.2735    0.2217  2.950e-02   -0.4059    3.1416    3.1416  1.617e-21  7.861e-24    0.6834  1.617e-21  110.0000 1
56  1.855e-02  2.293e-02  2.666e-02 -1.290e-02 -3.606e-03 -1.721e-03  1.954e-08  2.214e-08  1.025e-09  1.182e-09  6.517e-02 -9.655e-02    0.2333 -6.378e-02   -0.3610 -7.468e-02    3.1416    3.1416 -1.525e-18  1.925e-24    0.8548 -1.525e-18  110.0000 1
57 -2.415e-02  1.340e-02  1.717e-02 -9.470e-03 -2.502e-02 -4.050e-02  2.151e-08  2.179e-08  9.386e-10  1.090e-09    0.1557   -0.1961 -6.823e-02   -0.1595    0.1231   -0.5028    3.1416    3.1416 -5.366e-21 -2.837e-25    3.1416 -5.366e-21  110.0000 1
58 -1.552e-02 -2.484e-04  2.411e-02 -1.130e-02  7.245e-03  7.402e-03  2.050e-08  2.524e-08  1.228e-09  8.140e-10    0.1525  3.321e-02   -0.1038   -0.7186   -0.4302   -0.4696    3.1418    3.1416  9.207e-19    0.    3.1416  9.207e-19  110.0000 1
59 -1.144e-02  3.060e-02  6.649e-03  1.475e-02 -8.656e-03 -1.322e-02  1.938e-08  2.362e-08  1.033e-09  9.291e-10  3.463e-02    0.3430    0.2333  9.343e-02  3.207e-02 -4.283e-02    3.1416    3.1416  1.012e-17 -7.391e-26    3.1416  1.012e-17  110.0000 1
60  5.940e-03 -1.944e-02 -3.158e-02  1.279e-03  1.873e-02 -2.058e-02  2.058e-08  2.057e-08  9.171e-10  1.212e-09    0.5343    0.1797    0.3266   -0.2408    0.5903   -0.3043    3.1416    3.1416 -7.415e-20  2.149e-24    0.7826 -7.415e-20  110.0000 1
61  6.400e-03 -1.469e-02 -9.676e-03  1.593e-03  3.168e-02 -2.417e-02  2.152e-08  2.155e-08  1.174e-09  9.296e-10   -0.1785   -0.1593    0.3258 -5.609e-02    0.3654   -0.1080    3.1416    3.1416 -2.414e-23  5.317e-26    3.1416 -2.414e-23  110.0000 1
62 -1.500e-02 -3.172e-02  1.973e-02  1.058e-02  2.585e-02 -2.698e-02  2.392e-08  1.959e-08  9.301e-10  1.125e-09   -0.2588   -0.5548 -3.440e-02    0.4572   -0.1718    0.3882    3.1416    3.1416  1.156e-19 -1.134e-20    0.8205  1.156e-19  110.0000 1
63 -4.611e-02  1.206e-02 -5.306e-03 -2.757e-02 -2.499e-02 -8.842e-03  1.724e-08  2.711e-08  1.038e-09  9.710e-10    0.7243 -7.299e-02   -0.2487  1.362e-02    0.7251   -0.4599    3.1416    3.1416  2.076e-18  7.002e-23    3.1416  2.076e-18  110.0000 1
64 -1.144e-02  2.033e-02  7.080e-03  5.912e-03 -3.381e-02 -4.734e-03  2.054e-08  2.203e-08  1.083e-09  1.006e-09    0.1606    0.1627   -0.4516    0.2707 -1.406e-02 -2.913e-02    3.1416    3.1416  4.910e-20 -7.529e-24    3.1416  4.910e-20  110.0000 1
65  1.995e-02 -1.435e-02 -1.321e-02 -5.816e-03 -3.950e-02  2.905e-02  2.010e-08  2.335e-08  9.363e-10  7.050e-10 -8.596e-02    0.2101  4.847e-02  4.206e-02 -1.721e-02   -0.5123    3.1416    3.1416 -1.205e-21 -7.656e-25    3.1416 -1.205e-21  110.0000 1
66 -4.094e-03  1.144e-02 -1.365e-03  1.505e-02  1.755e-02  4.312e-03  2.130e-08  2.452e-08  7.816e-10  9.753e-10    0.4353   -0.1571    0.4496 -4.216e-02   -0.4760   -0.3550    3.1416    3.1416 -3.759e-21  3.854e-22    0.7413 -3.759e-21  110.0000 1
67 -8.787e-03  3.059e-02 -1.826e-02 -6.786e-03 -2.951e-02  1.348e-02  1.935e-08  2.469e-08  1.135e-09  8.838e-10   -0.1038  3.935e-02   -0.4522 -7.834e-03 -3.884e-02   -0.6875    3.1416    3.1416  3.344e-21 -4.962e-25    3.1416  3.344e-21  110.0000 1
68 -3.177e-02 -3.702e-02 -1.472e-02  2.007e-02  1.000e-02  1.885e-02  2.394e-08  2.204e-08  1.020e-09  1.020e-09  4.087e-02    0.2897   -0.2069  6.358e-02 -7.978e-02    0.1640    3.1416    3.1416  2.327e-20 -9.442e-25    3.1416  2.327e-20  110.0000 1
69  1.507e-02 -1.930e-02 -1.415e-03  9.910e-03  1.038e-02 -2.280e-02  2.335e-08  1.933e-08  1.101e-09  9.146e-10    0.4631 -7.164e-02   -0.1410  8.419e-02    0.3559   -0.3677    3.1416    3.1416 -9.352e-17 -6.846e-21    3.1416 -9.352e-17  110.0000 1
70 -4.631e-03 -6.605e-03 -6.631e-03 -2.930e-03 -2.042e-02  1.731e-02  1.981e-08  2.285e-08  1.063e-09  1.015e-09   -0.3158    0.2627  3.473e-02   -0.6896 -6.047e-02   -0.1570    3.1416    3.1416  1.481e-19  1.778e-24    3.1416  1.481e-19  110.0000 1
71 -6.653e-03 -1.330e-02  1.892e-03 -9.285e-03  6.776e-03 -1.530e-02  2.160e-08  1.978e-08  1.014e-09  9.080e-10   -0.5013 -8.370e-02 -1.808e-02   -0.5821   -0.1827   -0.3019    3.1416    3.1416 -4.944e-21 -1.252e-22    3.1416 -4.944e-21  110.0000 1
72  3.339e-02  1.808e-03 -4.000e-02  2.148e-02 -1.988e-02  7.411e-03  1.958e-08  2.090e-08  1.056e-09  1.045e-09    0.1328 -7.931e-02   -0.3442    0.3489  8.153e-05   -0.4509    3.1416    3.1416  3.036e-19  1.857e-22    3.1416  3.036e-19  110.0000 1
73  6.344e-03  1.721e-03 -6.694e-03  5.275e-03 -4.166e-02  1.990e-02  2.163e-08  1.916e-08  9.059e-10  8.512e-10    0.3483    0.2573   -0.1233  2.474e-02   -0.3088    0.6532    3.1416    3.1416  4.436e-17  1.200e-18    3.1416  4.436e-17  110.0000 1
74  5.895e-03 -1.946e-02 -7.020e-03  2.595e-03 -7.583e-04 -3.161e-02  2.377e-08  2.558e-08  1.148e-09  1.112e-09    0.2631   -0.4013  1.956e-02  3.728e-02    0.1550    0.4832    3.1416    3.1416  1.053e-22    0.    0.6487  1.053e-22  110.0000 1
75 -3.183e-02 -2.240e-02 -2.242e-02  5.239e-03 -2.234e-03 -1.872e-03  2.187e-08  2.147e-08  1.108e-09  1.204e-09    0.4446    0.2294  3.590e-03   -0.2870    0.2388 -4.507e-02    3.1416    3.1416 -2.287e-19 -3.818e-22    0.7946 -2.287e-19  110.0000 1
76 -1.426e-02 -1.548e-02  3.575e-02 -1.373e-02  3.551e-02  1.027e-02  2.490e-08  2.615e-08  9.957e-10  9.468e-10    0.2721 -1.185e-02   -0.1130   -0.6069   -0.1357    0.3658    3.1416    3.1416 -9.266e-21  2.743e-25    0.6311 -9.266e-21  110.0000 1
77 -4.047e-02 -2.609e-02  1.101e-02  1.389e-02 -1.594e-02  1.911e-02  2.245e-08  2.087e-08  1.027e-09  8.951e-10    0.2827    0.1917    0.3534 -4.855e-02   -0.2926  1.012e-02    3.1416    3.1416  1.146e-20  1.359e-19    3.1416  1.146e-20  110.0000 1
78 -1.295e-02 -2.915e-02 -1.437e-02 -2.177e-02  2.581e-02 -1.775e-02  2.315e-08  2.186e-08  9.897e-10  9.552e-10  7.031e-02   -0.3130    0.1241  2.962e-02    0.2863    0.1568    3.1416    3.1416  1.046e-19  1.018e-23    3.1416  1.046e-19  110.0000 1
79 -4.480e-03  7.451e-03 -2.529e-03  5.415e-02 -3.391e-02  3.269e-04  2.749e-08  2.402e-08  9.032e-10  9.366e-10    0.1806    0.5641    0.7801 -2.207e-02   -0.5462   -0.1101    3.1416    3.1416  1.802e-19 -6.881e-22    0.7661  1.802e-19  110.0000 1
80  9.439e-03 -2.058e-05 -1.968e-02  1.744e-02 -4.766e-04  6.049e-03  2.130e-08  2.033e-08  1.151e-09  1.070e-09    0.1971   -0.2843 -8.583e-02   -0.2056    0.4173    0.2453    3.1416    3.1416 -9.764e-21  9.284e-25    3.1416 -9.764e-21  110.0000 1
81  1.500e-02 -6.115e-03  1.616e-02  5.215e-03 -3.006e-02 -2.337e-02  1.867e-08  2.503e-08  8.811e-10  1.052e-09   -0.1031    0.1370  9.140e-02   -0.3460    0.4127 -6.599e-02    3.1416    3.1416 -1.370e-21 -3.578e-19    0.8608 -1.370e-21  110.0000 1
82 -1.308e-02 -1.824e-03  6.356e-04 -2.074e-02  1.114e-02  1.330e-02  2.105e-08  2.012e-08  9.842e-10  1.109e-09  8.392e-03   -0.3593   -0.3716   -0.2640 -9.923e-02 -1.264e-02    3.1416    3.1416  1.996e-20  1.425e-19    3.1416  1.996e-20  110.0000 1
83  3.179e-03  1.562e-02 -1.716e-02  3.382e-02  2.768e-02  6.828e-03  2.089e-08  2.374e-08  1.154e-09  1.140e-09 -8.752e-02    0.4717   -0.1861   -0.1466 -3.365e-02   -0.3067    3.1416    3.1416  3.160e-20 -2.837e-24    0.7420  3.160e-20  110.0000 1
84  3.805e-03  2.566e-03  6.732e-03  2.396e-02  1.014e-02 -6.783e-03  2.030e-08  1.823e-08  8.962e-10  9.592e-10    0.4139  8.761e-02    0.4478    0.1906   -0.3937   -0.4106    3.1416    3.1416 -3.836e-20  9.000e-22    3.1416 -3.836e-20  110.0000 1
85  6.083e-03 -6.565e-03 -6.775e-03  1.074e-02 -1.372e-03 -2.565e-03  2.228e-08  2.341e-08  8.318e-10  8.835e-10 -1.796e-02   -0.1027   -0.2372  8.490e-02    0.2398   -0.4028    3.1416    3.1416  1.964e-19 -1.278e-17    3.1416  1.964e-19  110.0000 1
86 -1.904e-02  4.226e-03 -3.489e-02 -1.041e-03 -3.088e-02  9.600e-03  1.884e-08  2.358e-08  9.417e-10  1.043e-09 -1.029e-02   -0.1289   -0.2283    0.1348    0.1989    0.2688    3.1416    3.1416 -7.527e-23 -3.482e-18    3.1416 -7.527e-23  110.0000 1
87  2.272e-02 -8.536e-03 -2.767e-02  1.730e-02 -2.586e-02 -4.334e-03  2.429e-08  1.641e-08  1.110e-09  1.009e-09    0.3561  6.891e-03   -0.3098 -2.862e-02    0.2261    0.8168    3.1416    3.1416 -9.298e-17  4.809e-27    3.1416 -9.298e-17  110.0000 1
88 -6.211e-03 -7.316e-03  3.740e-02 -1.123e-02  4.091e-02 -5.605e-03  2.112e-08  2.001e-08  9.778e-10  9.795e-10   -0.1592    0.1656    0.3798    0.3118    0.3562   -0.2015    3.1416    3.1416  2.842e-21  1.256e-24    3.1416  2.842e-21  110.0000 1
89 -8.703e-03 -1.148e-03  1.568e-02 -2.948e-02 -5.750e-03 -2.353e-02  2.125e-08  2.273e-08  1.103e-09  1.144e-09    0.1608   -0.4352   -0.1561    0.2781    0.2049 -1.325e-02    3.1416    3.1416  3.265e-23  9.438e-24    0.8252  3.265e-23  110.0000 1
90 -1.536e-02  4.684e-03  2.755e-02  4.933e-03 -1.211e-02 -2.299e-02  1.979e-08  1.997e-08  1.013e-09  9.421e-10  9.758e-02 -2.175e-03   -0.2250 -1.644e-02  8.873e-03   -0.3281    3.1416    3.1416 -1.246e-16  6.711e-23    3.1416 -1.246e-16  110.0000 1
91  1.103e-02 -1.610e-02 -1.108e-02 -9.441e-03  2.713e-03 -6.243e-03  1.915e-08  2.412e-08  9.391e-10  1.042e-09   -0.3228   -0.1073    0.5186    0.2999 -9.505e-02    0.4427    3.1416    3.1416  6.846e-20 -4.350e-24    3.1416  6.846e-20  110.0000 1
92 -1.974e-02  3.104e-02  8.541e-03 -3.046e-03 -2.307e-02 -1.033e-02  2.447e-08  1.958e-08  1.010e-09  9.579e-10    0.8721  8.849e-02    0.3999   -0.5931    0.2489    0.5274    3.1416    3.1416  1.188e-17  5.280e-25    3.1416  1.188e-17  110.0000 1
93 -2.971e-03 -1.715e-03 -2.199e-02  1.079e-02  7.504e-03  3.739e-02  2.554e-08  2.087e-08  8.980e-10  1.092e-09   -0.2256 -2.373e-02    0.3296   -0.4910   -0.4708    0.3811    3.1416    3.1416 -1.167e-17 -5.919e-23    0.7444 -1.167e-17  110.0000 1
94 -1.298e-02  1.621e-02 -6.588e-03  9.707e-03  1.544e-02 -7.226e-03  2.404e-08  2.283e-08  9.553e-10  8.099e-10 -9.532e-02    0.3828    0.1878    0.2826  3.245e-02    0.3068    3.1416    3.1416 -1.032e-21 -1.221e-23    3.1416 -1.032e-21  110.0000 1
95  7.916e-03  3.056e-03 -1.219e-02 -5.332e-04  2.758e-02 -1.332e-02  1.884e-08  2.598e-08  1.133e-09  1.070e-09    0.4101    0.5726 -8.684e-02   -0.7177  4.464e-03   -0.2844    3.1416    3.1416  4.077e-22  1.083e-21    0.7326  4.077e-22  110.0000 1
96 -4.055e-02  1.050e-02  1.641e-02 -2.516e-02  2.331e-02 -1.330e-03  2.458e-08  2.207e-08  9.092e-10  1.009e-09    0.6520  3.358e-02 -5.814e-02   -0.2998    0.6680 -2.630e-02    3.1416    3.1416  1.028e-19  2.696e-24    0.7810  1.028e-19  110.0000 1
97  1.338e-02  1.801e-02 -2.666e-03  6.361e-03 -1.713e-02 -1.120e-02  2.410e-08  2.171e-08  8.627e-10  1.152e-09    0.2584    0.3143   -0.6859    0.2242 -9.898e-02   -0.2873    3.1416    3.1416  2.439e-19  2.500e-17    0.7055  2.439e-19  110.0000 1
98  1.611e-03  3.049e-03 -3.594e-03  2.429e-03 -2.121e-02 -1.209e-02  2.227e-08  2.457e-08  1.007e-09  1.111e-09    0.2457    0.4774    0.6405    0.4764    0.5020    0.2811    3.1416    3.1416 -8.856e-22 -4.970e-22    0.7134 -8.856e-22  110.0000 1
99 -1.101e-02  7.775e-03  4.649e-03 -1.222e-02  2.414e-02 -9.509e-03  2.186e-08  2.175e-08  9.612e-10  1.012e-09   -0.1252    0.3574   -0.6030    0.1002  3.790e-03   -0.2240    3.1416    3.1416 -9.214e-21 -1.588e-21    3.1416 -9.214e-21  110.0000 1
100 -3.187e-03 -8.719e-03  9.210e-03  2.228e-02  3.855e-02  4.315e-03  2.017e-08  1.940e-08  1.043e-09  1.019e-09    0.1457 -5.791e-02  1.610e-02  3.306e-02    0.4202    0.4722    3.1416    3.1416 -1.766e-23  1.199e-22    3.1416 -1.766e-23  110.0000 1
101  3.355e-02 -1.804e-02  1.294e-02 -8.989e-04 -1.434e-02  1.391e-02  2.075e-08  1.899e-08  9.532e-10  1.041e-09   -0.4208    0.4561  4.747e-02   -0.7121    0.2559   -0.1276    3.1416    3.1416 -1.299e-20 -1.841e-21    3.1416 -1.299e-20  110.0000 1
102  2.152e-02  8.676e-03 -2.272e-03 -9.816e-03  8.943e-03 -9.083e-03  2.369e-08  2.686e-08  1.055e-09  8.702e-10  4.399e-02    0.2061    0.2774 -1.266e-02   -0.2984  8.385e-02    3.1416    3.1416  2.583e-19    0.    0.7553  2.583e-19  110.0000 1
103  5.869e-03 -4.504e-04  1.513e-02  1.345e-03  2.361e-02 -4.712e-03  2.121e-08  2.297e-08  1.003e-09  8.959e-10   -0.5071 -8.852e-02 -2.478e-02   -0.2928    0.4840   -0.1850    3.1416    3.1416  2.655e-22 -1.712e-23    3.1416  2.655e-22  110.0000 1
104 -2.902e-02 -2.250e-05 -1.353e-02 -4.555e-03 -2.429e-03 -6.332e-03  2.373e-08  2.208e-08  9.218e-10  1.171e-09   -0.5229 -2.148e-02   -0.3038  1.593e-02   -0.3339    0.1577    3.1416    3.1416  9.121e-20  2.063e-20    0.6841  9.121e-20  110.0000 1
105  5.078e-03 -1.435e-02  2.639e-02 -1.422e-02 -1.147e-02  1.573e-02  1.897e-08  2.122e-08  1.216e-09  1.099e-09   -0.5015   -0.7587    0.6797 -3.031e-02    0.2954   -0.3922    3.1416    3.1416 -2.284e-24 -6.000e-24    3.1416 -2.284e-24  110.0000 1
106  9.179e-04  1.074e-02 -4.689e-02  8.024e-04 -2.416e-02 -2.063e-02  2.154e-08  2.063e-08  1.084e-09  9.913e-10    0.4097    0.1354   -0.4118    0.3967   -0.2470    0.2063    3.1416    3.1416 -1.023e-18  1.290e-24    3.1416 -1.023e-18  110.0000 1
107  7.449e-05  2.391e-03  2.062e-02 -1.078e-02  1.630e-02 -1.714e-02  1.935e-08  2.242e-08  8.435e-10  1.122e-09    0.7075 -3.053e-02    0.3772    0.3987    0.1469   -0.3855    3.1416    3.1416  6.384e-17 -5.776e-20    0.8049  6.384e-17  110.0000 1
108  3.246e-03  1.933e-02  2.075e-02  2.071e-02  2.593e-03 -2.201e-02  2.159e-08  2.306e-08  9.397e-10  9.365e-10  9.784e-02   -0.4449 -5.856e-03  4.564e-02    0.2922    0.6202    3.1416    3.1416 -4.804e-22 -2.826e-20    3.1416 -4.804e-22  110.0000 1
109 -1.035e-02 -1.433e-02  2.528e-02  1.909e-02  2.017e-02  6.252e-03  2.470e-08  1.831e-08  8.037e-10  1.173e-09    0.1716 -9.899e-02    0.1361    0.6566    0.3705  2.153e-03    3.1416    3.1416  8.489e-17  5.621e-23    0.7288  8.489e-17  110.0000 1
110 -8.591e-03  3.792e-03 -2.011e-03  2.079e-02 -8.887e-03  4.872e-03  2.136e-08  1.901e-08  9.368e-10  8.456e-10  5.380e-03  5.119e-02  2.573e-02   -0.1645 -4.594e-02    0.5218    3.1416    3.1416  4.710e-18 -1.238e-20    3.1416  4.710e-18  110.0000 1
111  5.886e-03  2.467e-03  2.882e-02 -1.021e-02  1.478e-02 -2.174e-02  1.880e-08  2.093e-08  1.107e-09  9.830e-10    0.4342    0.2741   -0.1043    0.4791    0.1928    0.7555    3.1416    3.1416  1.070e-19 -1.293e-20    3.1416  1.070e-19  110.0000 1
112  2.010e-02 -2.284e-02 -3.366e-02  1.700e-02  2.175e-02  9.738e-03  2.340e-08  2.185e-08  9.237e-10  1.289e-09   -0.2264  1.326e-02    0.6900  8.999e-02   -0.5289    0.2210    3.1416    3.1416 -1.467e-18 -1.241e-22    0.6007 -1.467e-18  110.0000 1
113 -1.566e-02  4.726e-03 -2.224e-02 -6.096e-03 -1.259e-02 -6.877e-03  1.975e-08  2.082e-08  9.903e-10  8.742e-10    0.5433   -0.6487    0.1462  8.775e-02 -6.013e-03  4.875e-03    3.1416    3.1416 -3.547e-19 -2.655e-25    3.1416 -3.547e-19  110.0000 1
114 -1.624e-02 -2.544e-02 -7.813e-03  4.847e-03 -2.315e-03  1.131e-02  2.198e-08  1.937e-08  9.574e-10  9.608e-10    0.6592    0.6881    0.4655    0.2492   -0.4779   -0.3975    3.1416    3.1416  1.313e-19  2.252e-19    3.1416  1.313e-19  110.0000 1
115  2.622e-02 -7.846e-03 -3.441e-03  2.988e-02 -3.908e-03  1.385e-02  1.899e-08  2.275e-08  1.090e-09  9.983e-10   -0.5583    0.4158 -4.655e-03 -3.452e-02   -0.8531    0.1384    3.1416    3.1416 -8.070e-17 -6.132e-23    3.1416 -8.070e-17  110.0000 1
116 -2.074e-02  3.322e-02  1.112e-03 -1.239e-03 -1.533e-03  4.225e-03  2.041e-08  2.181e-08  1.055e-09  1.098e-09   -0.3881   -0.3665   -0.3017    0.4633   -0.1156  7.815e-02    3.1416    3.1416  4.194e-17 -3.660e-22    3.1416  4.194e-17  110.0000 1
117  1.678e-02  1.038e-02  6.652e-03  1.053e-03 -3.567e-02  2.421e-02  1.921e-08  2.090e-08  9.787e-10  1.089e-09    0.2177   -0.5774   -0.1737    0.3192   -0.5038  1.131e-02    3.1416    3.1416  1.274e-19 -6.504e-22    3.1416  1.274e-19  110.0000 1
118 -1.166e-02 -5.910e-03  2.555e-02  1.653e-02  2.806e-02  3.145e-02  2.420e-08  2.052e-08  8.797e-10  1.046e-09  7.895e-02   -0.1571 -7.295e-02   -0.3278    0.2374   -0.2546    3.1416    3.1416  5.895e-17  5.330e-18    0.8410  5.895e-17  110.0000 1
119  1.004e-03 -1.211e-02 -2.349e-02  1.615e-03  2.436e-02 -4.526e-03  2.074e-08  1.839e-08  9.770e-10  1.184e-09  5.533e-02    0.2680   -0.3835   -0.3580   -0.3455   -0.3106    3.1416    3.1416 -7.523e-17 -2.129e-22    3.1416 -7.523e-17  110.0000 1
120  1.383e-02 -8.577e-03  3.245e-02  1.784e-02  4.569e-03  1.534e-02  2.313e-08  1.757e-08  8.984e-10  1.139e-09   -0.2041    0.3623   -0.4324  4.522e-02 -5.881e-02  1.243e-02    3.1416    3.1416 -8.559e-20 -3.499e-24    3.1416 -8.559e-20  110.0000 1
121  2.179e-02  1.162e-02  1.442e-02  2.632e-02  1.671e-02 -3.268e-02  1.958e-08  2.122e-08  9.933e-10  1.050e-09 -4.947e-02  6.639e-02   -0.2750   -0.2378   -0.4977    0.4976    3.1416    3.1416  1.892e-18 -4.628e-23    3.1416  1.892e-18  110.0000 1
122  2.222e-02 -2.855e-02  7.988e-03 -3.165e-03  1.840e-02  1.094e-02  2.326e-08  2.191e-08  1.040e-09  9.613e-10    0.3593    0.3496    1.5189    0.8060   -0.4136   -0.3434    3.1416    3.1416  1.454e-22  2.858e-20    3.1416  1.454e-22  110.0000 1
123  1.343e-02 -2.679e-02 -1.056e-02 -3.537e-02 -4.705e-03  4.629e-02  1.880e-08  2.464e-08  9.100e-10  1.078e-09    0.3498    0.4222    0.1159  8.403e-02 -7.669e-02    0.2843    3.1416    3.1416  9.374e-23  2.618e-22    0.7968  9.374e-23  110.0000 1
124 -1.229e-02 -9.072e-03  5.404e-03  1.493e-03  2.191e-03  4.098e-02  2.121e-08  2.397e-08  1.066e-09  8.697e-10   -0.2952    0.4159    0.7369   -0.1148    0.1939    0.1587    3.1416    3.1416 -3.425e-21  2.508e-25    3.1416 -3.425e-21  110.0000 1
125 -1.014e-02 -9.630e-03  7.633e-03  6.509e-03  5.577e-03 -9.258e-03  2.078e-08  2.399e-08  9.234e-10  1.077e-09   -0.4791    0.3548  7.411e-02   -0.6120   -0.4742   -0.2095    3.1416    3.1416  9.023e-22  2.390e-21    0.7555  9.023e-22  110.0000 1
126 -1.324e-02 -1.478e-02 -1.072e-02  1.101e-02 -1.174e-02 -5.555e-03  2.526e-08  1.981e-08  9.748e-10  9.716e-10    0.4791  6.656e-02   -0.2821    0.1254   -0.3715 -2.056e-02    3.1416    3.1416  4.225e-17  5.055e-19    3.1416  4.225e-17  110.0000 1
127 -1.885e-02 -1.185e-02  6.016e-03 -2.644e-02  3.121e-02 -1.252e-02  1.860e-08  2.469e-08  1.192e-09  1.130e-09   -0.1220    0.3162  5.136e-03 -9.567e-02   -0.1316    0.2138    3.1416    3.1416  7.438e-21  5.592e-24    0.7567  7.438e-21  110.0000 1
128 -5.467e-02 -1.502e-02  3.321e-02 -5.778e-04  3.851e-03  1.541e-02  2.609e-08  2.215e-08  7.730e-10  1.088e-09  9.908e-02  7.130e-02   -0.3810    0.4266    0.5636   -0.1811    3.1416    3.1416 -9.693e-21  4.622e-19    0.6257 -9.693e-21  110.0000 1
129  2.548e-02  6.802e-03  3.181e-03 -4.336e-03 -8.680e-03  2.082e-02  2.229e-08  2.126e-08  8.035e-10  1.007e-09    0.1901    0.7360  2.260e-02    0.3020 -3.398e-02   -0.1692    3.1416    3.1416  3.901e-22 -1.714e-24    3.1416  3.901e-22  110.0000 1
130 -2.018e-02 -1.350e-04 -1.796e-04 -1.904e-02  6.654e-03 -1.425e-02  1.855e-08  1.903e-08  8.572e-10  9.080e-10    0.6196  5.149e-02    0.2207 -7.556e-02    0.3527  8.657e-02    3.1416    3.1416  9.540e-21 -7.114e-21    3.1416  9.540e-21  110.0000 1
131 -2.823e-03 -2.536e-02 -2.035e-02 -1.206e-02 -2.850e-02 -4.723e-02  2.445e-08  1.868e-08  1.067e-09  1.057e-09    0.1522    0.1469   -0.2215   -0.3333    0.4312  4.216e-02    3.1416    3.1416 -6.362e-20 -2.262e-24    3.1416 -6.362e-20  110.0000 1
132  5.963e-03  4.127e-02 -2.001e-02 -9.117e-03  9.589e-03 -1.799e-03  2.447e-08  2.132e-08  1.205e-09  9.979e-10   -0.2391    0.4556   -0.9468   -0.5679   -0.1551  5.855e-02    0.8514    3.1416  1.787e-19    0.    3.1416  1.787e-19  110.0000 1
133  3.826e-02  1.399e-02  1.332e-02 -2.132e-02 -3.994e-03 -2.213e-02  1.968e-08  2.583e-08  9.818e-10  9.020e-10   -0.5017 -5.668e-02   -0.7213    0.1129 -2.670e-02  1.672e-02    3.1416    3.1416  6.703e-19 -6.112e-18    3.1416  6.703e-19  110.0000 1
134  4.105e-03  2.844e-02  2.197e-02 -6.213e-03  9.344e-03  6.981e-03  2.500e-08  1.824e-08  1.037e-09  1.052e-09   -0.2178    0.4368    0.1667   -0.1629    0.3314    0.7386    3.1416    3.1416  1.848e-18 -6.510e-22    3.1416  1.848e-18  110.0000 1
135  2.064e-02  7.803e-03  1.730e-02 -1.562e-02 -4.365e-04  1.376e-04  2.266e-08  1.887e-08  1.152e-09  1.138e-09    0.6181    0.4189 -2.794e-02    0.6518   -0.3844    0.2414    3.1416    3.1416 -2.672e-20  6.904e-25    3.1416 -2.672e-20  110.0000 1
136  2.138e-02  3.859e-03  3.234e-04 -6.427e-03 -3.649e-03 -2.673e-02  2.408e-08  1.655e-08  1.100e-09  1.267e-09  8.699e-02    0.2163 -9.462e-02   -0.7009   -0.2251  9.867e-02    3.1416    3.1416  5.415e-18  8.259e-26    3.1416  5.415e-18  110.0000 1
137  1.795e-02  2.840e-03 -1.245e-02 -1.419e-02  8.216e-03 -5.546e-03  2.273e-08  2.114e-08  1.181e-09  1.242e-09  4.074e-02   -0.4300    0.5112   -0.4838    0.3365   -0.3563    3.1416    3.1416 -8.367e-20  2.406e-23    0.7466 -8.367e-20  110.0000 1
138  3.957e-02  7.869e-03  3.617e-02 -2.307e-03  4.176e-02  1.881e-02  2.235e-08  2.345e-08  1.002e-09  1.075e-09 -9.207e-02    0.4656    0.2062    0.1663    0.4571    0.2262    3.1416    3.1416 -9.246e-25  1.755e-19    0.7070 -9.246e-25  110.0000 1
139  2.861e-03 -1.886e-02 -5.961e-03  3.586e-03  6.125e-03  9.026e-04  1.662e-08  2.216e-08  9.168e-10  1.041e-09  7.279e-02   -0.2092 -6.315e-02    0.2867   -0.3273   -0.2444    3.1416    3.1416 -7.462e-22  7.358e-23    3.1416 -7.462e-22  110.0000 1
140 -3.902e-02 -7.448e-03 -1.036e-02  1.200e-02  1.790e-02 -6.460e-03  2.007e-08  2.137e-08  1.099e-09  1.065e-09 -5.684e-02   -0.2041   -0.1582   -0.2600 -2.342e-02    0.2154    3.1416    3.1416  2.804e-21 -7.076e-24    3.1416  2.804e-21  110.0000 1
141 -1.318e-02  1.079e-02 -1.044e-02  7.342e-03  2.593e-02  1.987e-02  2.433e-08  2.106e-08  8.631e-10  1.134e-09  5.240e-02 -3.096e-02 -5.422e-02   -0.5580    0.4737   -0.3347    3.1416    3.1416 -1.528e-21  2.632e-22    0.6848 -1.528e-21  110.0000 1
142 -5.402e-03  3.302e-03 -9.139e-03  1.630e-02  1.900e-02  3.514e-02  1.848e-08  2.232e-08  1.144e-09  9.278e-10    0.6165   -0.4294    0.4426   -0.1453  3.483e-02   -0.2213    3.1416    3.1416  7.534e-18 -1.166e-25    3.1416  7.534e-18  110.0000 1
143 -2.776e-02 -7.301e-03 -2.698e-03  4.172e-03 -9.585e-03  8.005e-03  2.369e-08  2.177e-08  9.710e-10  1.192e-09  7.007e-02   -0.4285  2.303e-02  2.454e-03    0.1447   -0.2681    3.1416    3.1416  3.524e-19 -1.025e-22    0.7013  3.524e-19  110.0000 1
144  6.314e-03  2.762e-02  1.642e-02 -9.654e-03  1.862e-02 -1.298e-02  2.035e-08  2.367e-08  8.120e-10  9.013e-10 -7.194e-02  5.111e-02    0.2002   -0.2368  4.183e-02   -0.3372    3.1416    3.1416 -7.808e-17 -1.340e-21    3.1416 -7.808e-17  110.0000 1
145 -5.651e-03 -5.303e-03 -5.931e-03  1.975e-02  1.123e-02  1.063e-02  2.241e-08  2.165e-08  1.012e-09  1.070e-09    0.5724    0.2557   -0.2304   -0.6581    0.2123   -0.2852    3.1416    3.1416  1.702e-19 -2.739e-21    3.1416  1.702e-19  110.0000 1
146  5.673e-03 -7.571e-03  1.690e-02 -3.320e-02  2.418e-02 -2.566e-02  2.325e-08  1.860e-08  1.097e-09  8.240e-10  8.597e-03    0.2748    0.5757    0.1521 -8.114e-02    0.2671    3.1416    3.1416 -7.739e-19  8.663e-26    3.1416 -7.739e-19  110.0000 1
147  9.494e-03  2.287e-02  5.374e-02  1.430e-02 -5.310e-03  1.290e-02  2.268e-08  2.624e-08  1.031e-09  9.718e-10   -0.1483   -0.6649    0.2004   -0.4013   -0.3031    0.3164    3.1416    3.1416  8.154e-18  6.209e-25    0.7215  8.154e-18  110.0000 1
148 -1.159e-02 -1.439e-02  2.450e-02  1.486e-02 -1.430e-02 -2.057e-03  2.042e-08  2.148e-08  9.249e-10  8.426e-10    0.2627    0.6485 -6.116e-03    0.5503  1.425e-03 -8.888e-02    3.1416    3.1416 -1.468e-22 -9.635e-22    3.1416 -1.468e-22  110.0000 1
149  4.736e-02 -1.747e-03 -3.323e-02 -1.646e-03 -4.004e-03 -1.104e-02  2.353e-08  2.201e-08  1.005e-09  9.091e-10 -4.344e-02  8.085e-03  5.220e-02   -0.6089   -0.3816    0.1685    3.1416    3.1416  1.164e-19  1.379e-21    3.1416  1.164e-19  110.0000 1
150 -1.940e-02  9.071e-03 -7.742e-03  4.843e-03  3.455e-02 -1.174e-03  2.357e-08  2.306e-08  9.647e-10  8.646e-10  9.366e-02 -7.829e-02   -0.2923   -0.1204   -0.1741   -0.2254    3.1416    3.1416  2.487e-20 -4.758e-24    3.1416  2.487e-20  110.0000 1
151  6.037e-04  1.051e-02 -8.487e-03 -1.283e-03  4.993e-03 -1.118e-02  1.808e-08  2.489e-08  1.166e-09  1.060e-09   -0.4701    0.4671    0.2234  2.711e-02    0.4604    0.1567    3.1416    3.1416 -8.283e-19 -1.316e-21    3.1416 -8.283e-19  110.0000 1
152  7.506e-03 -2.387e-02  8.292e-03 -1.236e-02 -3.038e-03  1.849e-03  2.120e-08  2.052e-08  9.929e-10  1.058e-09    0.1891   -0.6356   -0.1017    0.2432   -0.5443   -0.2323    3.1416    3.1416 -9.148e-21  3.084e-21    3.1416 -9.148e-21  110.0000 1
153 -1.744e-02 -8.421e-03  1.266e-02  1.594e-02  1.143e-02  2.430e-02  2.679e-08  2.165e-08  1.021e-09  1.052e-09    0.4227  4.836e-02   -0.2813   -0.3214    0.1658   -0.5303    3.1416    3.1416  1.984e-17 -4.133e-28    0.7501  1.984e-17  110.0000 1
154  3.008e-02  5.711e-03 -3.694e-02  3.589e-03  7.639e-03  4.029e-03  2.055e-08  2.040e-08  1.057e-09  9.942e-10  8.208e-03   -0.2309   -0.5509    0.1985    0.2361   -0.1412    3.1416    3.1416  3.316e-23 -5.180e-23    3.1416  3.316e-23  110.0000 1
155  7.040e-03 -7.883e-03  1.293e-02  3.199e-03  1.269e-02 -1.899e-02  2.497e-08  1.967e-08  9.834e-10  1.029e-09   -0.1399    0.2941   -0.1983 -4.970e-02    0.2804    0.1925    3.1416    3.1416  4.337e-19  8.362e-25    3.1416  4.337e-19  110.0000 1
156 -1.833e-02 -1.231e-02 -1.214e-02 -1.441e-02 -3.283e-03 -4.314e-04  2.439e-08  2.046e-08  9.708e-10  9.215e-10   -0.1814    0.6802   -0.2868   -0.6092  2.681e-02   -0.1406    3.1416    3.1416  1.836e-19 -1.364e-23    3.1416  1.836e-19  110.0000 1
157 -1.714e-02  7.736e-03 -5.079e-03 -1.281e-02  1.049e-02  1.167e-02  2.510e-08  2.294e-08  1.006e-09  1.230e-09    0.4922 -3.590e-02 -9.660e-02    0.1938    0.8964   -0.1283    3.1416    3.1416  7.193e-19  2.693e-24    0.5996  7.193e-19  110.0000 1
158 -2.948e-03  2.323e-03 -2.377e-02 -1.136e-03  4.987e-03  2.545e-02  2.295e-08  2.052e-08  9.917e-10  1.206e-09  3.170e-02    0.2950   -0.4537   -0.7474    0.3310    0.5031    3.1416    3.1416  1.910e-22  2.718e-25    0.7578  1.910e-22  110.0000 1
159 -1.642e-02 -2.078e-04  1.741e-02  7.549e-03  5.526e-03 -5.561e-03  2.245e-08  2.291e-08  1.059e-09  9.628e-10  8.948e-02   -0.2153    0.2791    0.2219    0.2262    0.2423    3.1416    3.1416 -4.898e-20  3.880e-20    3.1416 -4.898e-20  110.0000 1
160 -8.812e-03  2.240e-03 -7.349e-03 -2.001e-02  4.344e-03 -1.371e-02  2.150e-08  2.260e-08  1.079e-09  1.045e-09   -0.1577 -5.091e-03   -0.6220   -0.1314    0.1971  7.489e-02    3.1416    3.1416 -1.000e-20  1.779e-18    3.1416 -1.000e-20  110.0000 1
161 -1.945e-02  2.148e-02  5.836e-04 -2.124e-02  1.547e-02 -1.197e-02  2.489e-08  2.579e-08  1.135e-09  9.605e-10   -0.3598    0.1105 -6.982e-02    0.4033   -0.1185    0.1507    0.8120    3.1416  2.022e-17    0.    0.7063  2.022e-17  110.0000 1
162 -8.776e-03 -6.851e-03 -1.208e-02  3.742e-02  7.949e-03  3.125e-05  2.237e-08  1.901e-08  9.935e-10  9.945e-10   -0.4533    0.6783   -0.3610    0.1570   -0.2397   -0.1939    3.1416    3.1416 -1.735e-21  1.711e-18    3.1416 -1.735e-21  110.0000 1
163 -7.260e-03 -2.591e-02 -4.002e-02 -1.062e-02 -3.985e-02 -1.388e-02  2.571e-08  1.793e-08  1.165e-09  9.147e-10   -0.1914   -0.3222    0.3669    0.1194    0.4410   -0.1889    3.1416    3.1416  9.226e-22    0.    3.1416  9.226e-22  110.0000 1
164  1.961e-02  1.861e-02 -2.951e-02  1.664e-02  2.331e-02 -1.946e-02  2.201e-08  2.154e-08  1.019e-09  8.540e-10    0.3232    0.1259    0.1464   -0.6495    0.2048   -0.5641    3.1416    3.1416  6.390e-17 -3.821e-24    3.1416  6.390e-17  110.0000 1
165 -2.802e-02  1.176e-02 -1.616e-02  3.597e-03 -1.296e-02  1.727e-02  2.356e-08  2.140e-08  1.090e-09  1.122e-09   -0.1889   -0.6543   -0.1692  3.735e-02    0.2329   -0.3321    3.1416    3.1416  1.010e-16  1.604e-24    3.1416  1.010e-16  110.0000 1
166 -2.642e-02 -7.385e-03 -7.385e-03  1.865e-02  1.642e-02  4.066e-03  1.832e-08  2.340e-08  8.107e-10  9.110e-10    0.9491   -0.2405    0.1709   -0.2262  7.319e-02 -4.695e-02    3.1416    3.1416  3.273e-21 -3.879e-21    3.1416  3.273e-21  110.0000 1
167  2.243e-04 -9.892e-03 -2.777e-02 -8.761e-03 -1.622e-03  9.620e-03  2.055e-08  2.132e-08  9.981e-10  1.052e-09    0.2155 -6.582e-03   -0.2130    0.1512   -0.7741    0.2878    3.1416    3.1416  7.245e-20 -1.024e-22    3.1416  7.245e-20  110.0000 1
168  4.115e-03 -3.277e-03 -2.652e-02 -2.288e-03  1.448e-02 -2.037e-02  1.981e-08  2.103e-08  1.070e-09  8.936e-10    0.1524 -9.917e-03    0.2432   -0.2359    0.5027    0.4471    3.1416    3.1416  4.910e-21 -5.424e-22    3.1416  4.910e-21  110.0000 1
169  3.062e-02 -4.011e-03  5.467e-03 -1.687e-03  5.980e-03  2.293e-02  2.081e-08  2.198e-08  1.032e-09  1.096e-09   -0.1445   -0.1979    0.2301    0.2283    0.5160    0.5353    3.1416    3.1416  8.391e-21 -9.649e-22    3.1416  8.391e-21  110.0000 1
170 -5.824e-02 -2.605e-02  9.797e-03  1.982e-04  1.246e-02  4.314e-03  2.220e-08  2.128e-08  1.039e-09  8.992e-10   -0.5670   -0.2118   -0.7624   -0.2038    0.1673    0.3238    3.1416    3.1416 -4.283e-21 -6.351e-21    3.1416 -4.283e-21  110.0000 1
171 -5.995e-03  2.374e-02 -1.827e-02  4.644e-03  2.685e-02  1.619e-02  2.431e-08  2.234e-08  1.033e-09  8.445e-10    0.1851   -0.2946   -0.2511   -0.7979   -0.1627   -0.4087    3.1416    3.1416  2.158e-17  1.958e-24    3.1416  2.158e-17  110.0000 1
172  1.895e-02 -1.703e-02  4.761e-02 -2.273e-03  1.786e-03 -1.972e-02  2.097e-08  2.268e-08  1.142e-09  1.047e-09    0.2856    0.3972  5.856e-02  6.570e-03    0.2742 -9.305e-02    3.1416    3.1416 -3.698e-21  8.603e-26    3.1416 -3.698e-21  110.0000 1
173 -2.312e-02 -4.112e-02  6.920e-03 -2.032e-02 -1.154e-02 -1.055e-02  2.074e-08  2.083e-08  1.191e-09  1.166e-09   -0.5604  8.284e-02    0.2249    0.4063   -0.4154   -0.1108    3.1416    3.1416  1.757e-19 -1.286e-23    3.1416  1.757e-19  110.0000 1
174  8.100e-03 -5.420e-04  8.819e-03  2.977e-03 -2.108e-02  1.717e-02  1.926e-08  1.890e-08  9.497e-10  1.107e-09 -8.581e-02    0.2549   -0.3291    0.1299   -0.5297   -0.3312    3.1416    3.1416 -7.261e-21 -1.429e-21    3.1416 -7.261e-21  110.0000 1
175  7.613e-03  5.358e-03  3.647e-02  3.309e-02 -1.187e-02  4.202e-03  2.149e-08  2.402e-08  9.979e-10  8.873e-10 -1.133e-02 -3.995e-02    0.3476   -0.1250    0.3774    0.4324    3.1416    3.1416  5.019e-19 -9.044e-24    3.1416  5.019e-19  110.0000 1
176  3.016e-03  1.677e-03 -5.980e-03 -1.754e-02 -7.214e-04  9.806e-03  2.005e-08  2.554e-08  8.947e-10  9.931e-10    0.7168    0.3188    0.5179    0.1899    0.1931    0.1953    3.1416    3.1416  5.474e-17  1.445e-20    0.7860  5.474e-17  110.0000 1
177  6.417e-03 -2.243e-02 -1.229e-02  1.179e-02 -2.100e-02  7.918e-03  2.291e-08  2.376e-08  1.140e-09  1.140e-09   -0.1325   -0.2115  8.739e-02 -4.479e-03  3.578e-02   -0.2341    3.1416    3.1416  1.544e-18 -2.191e-24    0.7441  1.544e-18  110.0000 1
178  4.660e-03  1.337e-02 -1.464e-02  6.947e-03  3.207e-02 -1.492e-02  1.680e-08  2.588e-08  9.937e-10  1.111e-09   -0.3265  8.543e-02 -7.642e-03    0.4554  7.489e-02   -0.3489    3.1416    3.1416  5.521e-22 -3.331e-21    0.7178  5.521e-22  110.0000 1
179  2.804e-03 -4.064e-02  4.412e-02  8.591e-03  4.486e-02 -1.489e-02  2.504e-08  1.794e-08  9.489e-10  9.941e-10  7.272e-03   -0.3734    0.5414   -0.1061   -0.7235   -0.2585    3.1416    3.1416  8.211e-18  3.489e-26    3.1416  8.211e-18  110.0000 1
180  2.380e-03  2.958e-02 -1.514e-02  5.768e-04 -7.418e-03  6.311e-03  2.263e-08  2.265e-08  9.663e-10  1.157e-09   -0.2471   -0.3188 -4.666e-02   -0.2205    0.4476    0.1700    3.1416    3.1416  3.035e-20 -3.066e-23    0.7245  3.035e-20  110.0000 1
181 -1.095e-02  1.827e-02  4.308e-02 -1.285e-02 -2.077e-03  3.442e-02  2.117e-08  1.890e-08  1.093e-09  1.186e-09 -4.050e-02 -5.222e-03    0.4023    0.5768    0.3167   -0.2792    3.1416    3.1416 -1.377e-21 -6.511e-25    3.1416 -1.377e-21  110.0000 1
182  1.764e-03 -2.921e-02  1.160e-02  1.405e-02  1.117e-02  8.876e-03  2.163e-08  2.832e-08  1.059e-09  1.105e-09   -0.2203    0.1193   -0.1463 -2.203e-02    0.6380   -0.1099    3.1416    3.1416  2.378e-20 -2.459e-23    0.5704  2.378e-20  110.0000 1
183 -4.408e-03  5.938e-03 -9.034e-03 -4.830e-03  1.611e-02 -6.857e-03  2.153e-08  2.117e-08  1.012e-09  1.094e-09 -8.215e-02    0.5010    0.2360 -8.555e-02    0.2680   -0.7434    3.1416    3.1416 -5.610e-21  2.808e-23    3.1416 -5.610e-21  110.0000 1
184  1.123e-02  2.194e-02 -1.100e-02 -6.121e-02 -4.433e-03  5.435e-03  2.401e-08  2.201e-08  1.238e-09  1.225e-09   -0.3028   -0.1290   -0.2099    0.2884   -0.1473   -0.3073    0.8918    3.1416  1.138e-20 -5.216e-23    0.7185  1.138e-20  110.0000 1
185  1.429e-02  2.446e-03  4.609e-03 -1.857e-02  1.717e-03  2.626e-02  2.417e-08  2.615e-08  9.366e-10  1.150e-09 -5.673e-02    0.3269    0.5969    0.2223   -0.3083  6.199e-02    3.1416    3.1416  7.881e-20 -7.558e-23    0.5628  7.881e-20  110.0000 1
186  3.778e-02  1.090e-02 -1.303e-02 -3.845e-02 -1.222e-03 -8.820e-04  2.604e-08  2.332e-08  9.940e-10  1.053e-09    0.1065   -0.2421    0.4402    0.3065   -0.5191 -2.003e-02    3.1416    3.1416 -1.785e-21 -3.545e-24    0.7025 -1.785e-21  110.0000 1
187 -3.883e-03 -1.417e-02  2.415e-02  1.001e-02  2.754e-03  6.157e-04  2.418e-08  1.983e-08  9.862e-10  1.173e-09   -0.2915  5.176e-02    0.2054    0.3637   -0.5806   -0.3317    3.1416    3.1416  3.310e-23  9.354e-22    0.7936  3.310e-23  110.0000 1
188 -1.215e-02  2.284e-02  1.351e-02 -2.311e-02  2.768e-02  7.193e-03  1.910e-08  2.363e-08  9.303e-10  8.722e-10   -0.7542    0.1413   -0.4965    0.1353  6.903e-02   -0.5171    3.1416    3.1416  1.365e-21  1.220e-16    3.1416  1.365e-21  110.0000 1
189  5.009e-04  9.794e-03  6.796e-02  3.032e-02  1.229e-02 -6.108e-03  2.040e-08  2.213e-08  8.934e-10  1.147e-09   -0.2724 -9.864e-02    0.2957   -0.2271    0.3152   -0.4457    3.1416    3.1416  1.215e-16  6.844e-25    0.7656  1.215e-16  110.0000 1
190 -2.962e-02 -1.080e-03  3.025e-02 -2.085e-02 -2.602e-03 -3.855e-04  2.432e-08  2.180e-08  1.108e-09  1.105e-09 -5.899e-02    0.1992    0.2270   -0.1630    0.2636   -0.1990    3.1416    3.1416 -1.939e-21 -1.189e-22    0.8267 -1.939e-21  110.0000 1
191  8.245e-03 -2.648e-02 -1.384e-02 -4.367e-03 -3.403e-02 -1.751e-02  2.059e-08  2.141e-08  9.449e-10  1.088e-09   -0.4353 -3.233e-02   -0.4547    0.4262    0.3514    0.4020    3.1416    3.1416  2.550e-17 -1.288e-21    3.1416  2.550e-17  110.0000 1
192  2.216e-02  2.141e-02  2.604e-04  1.340e-02 -4.850e-03  1.144e-02  2.121e-08  2.443e-08  8.977e-10  1.050e-09   -0.1823 -6.320e-02   -0.4433    0.4475    0.1732   -0.2870    3.1416    3.1416 -6.170e-19 -3.001e-18    0.7582 -6.170e-19  110.0000 1
193  1.462e-02 -5.231e-03 -2.096e-02  1.261e-02  3.134e-02 -9.411e-03  2.122e-08  2.551e-08  9.144e-10  9.332e-10    0.4342   -0.1136    0.4848    0.4088    0.3635   -0.3025    3.1416    3.1416  6.263e-20  6.288e-21    0.7641  6.263e-20  110.0000 1
194  7.806e-03  3.138e-02 -2.555e-02 -7.788e-03 -1.226e-02 -1.696e-02  2.221e-08  2.324e-08  8.477e-10  1.051e-09 -3.989e-02    0.5680 -6.406e-02    0.1094   -0.5757   -0.5407    3.1416    3.1416  1.044e-22 -1.284e-17    0.7953  1.044e-22  110.0000 1
195  1.785e-02 -5.007e-03  8.397e-03 -2.266e-02 -2.197e-02  7.347e-03  2.374e-08  2.323e-08  9.372e-10  1.218e-09  9.790e-03    0.2103    0.2293    0.4882   -0.4127  3.240e-03    3.1416    3.1416 -2.532e-16  7.623e-20    0.6336 -2.532e-16  110.0000 1
196  1.296e-02  1.623e-02  2.341e-02  1.761e-02  1.609e-03 -1.392e-02  2.520e-08  2.340e-08  1.002e-09  8.280e-10   -0.3158 -8.969e-05  5.555e-02   -0.4022   -0.5156  6.394e-02    3.1416    3.1416  7.300e-19  8.598e-27    3.1416  7.300e-19  110.0000 1
197 -2.276e-02  1.193e-02  1.634e-02 -2.440e-02 -7.178e-03  4.837e-03  2.030e-08  2.733e-08  1.027e-09  1.016e-09    0.2985   -0.1883  9.503e-03   -0.4313   -0.2760    0.4521    3.1416    3.1416  4.280e-19 -2.852e-21    0.6913  4.280e-19  110.0000 1
198  1.065e-02 -1.109e-02  3.473e-04 -1.782e-02 -3.205e-02  1.430e-02  2.144e-08  1.944e-08  8.309e-10  9.048e-10  9.494e-03   -0.1917   -0.3735    0.2672   -0.2529 -3.274e-03    3.1416    3.1416 -4.241e-21 -2.473e-21    3.1416 -4.241e-21  110.0000 1
199 -2.101e-03  1.942e-02 -3.824e-02 -4.123e-03 -1.212e-02  1.205e-02  2.399e-08  2.258e-08  9.154e-10  9.949e-10    0.1244   -0.2576   -0.1641    0.9371 -9.724e-02  3.743e-02    3.1416    3.1416 -5.216e-18  2.562e-18    3.1416 -5.216e-18  110.0000 1
200 -2.779e-02  3.693e-03 -1.983e-03  1.077e-02 -2.731e-02 -2.743e-02  2.434e-08  2.456e-08  9.594e-10  9.278e-10  8.131e-02   -0.1375   -0.1919  6.404e-02   -0.1150    0.2381    3.1416    3.1416 -5.453e-22  9.942e-26    3.1416 -5.453e-22  110.0000 1
201  1.631e-02  1.638e-02  1.376e-02 -3.203e-03  2.343e-02  4.763e-03  2.629e-08  2.078e-08  9.700e-10  9.366e-10    0.5230    0.1999   -0.5116    0.2578   -0.4760   -0.3393    3.1416    3.1416  1.528e-19  1.723e-21    3.1416  1.528e-19  110.0000 1
202  1.899e-02 -2.875e-02  7.304e-03  3.719e-03 -3.600e-03 -1.911e-03  1.856e-08  2.425e-08  9.024e-10  1.029e-09 -4.651e-02   -0.2244   -0.6592    0.1450  5.756e-02  5.986e-02    3.1416    3.1416  8.190e-26 -2.239e-23    3.1416  8.190e-26  110.0000 1
203  8.971e-04  1.937e-02 -1.703e-02  7.245e-04 -1.661e-02 -1.415e-02  2.103e-08  2.364e-08  9.360e-10  1.034e-09   -0.3140    0.3347   -0.3534    0.2502   -0.5399    0.3281    3.1416    3.1416  5.580e-19 -8.401e-22    3.1416  5.580e-19  110.0000 1
204  4.921e-03 -3.188e-02  1.759e-02  1.326e-02 -4.154e-03  4.059e-04  2.066e-08  1.768e-08  1.010e-09  1.063e-09    0.1395    0.1244    0.3480   -0.6884    0.2912   -0.8781    3.1416    3.1416  6.366e-22 -4.252e-21    3.1416  6.366e-22  110.0000 1
205 -3.865e-03 -1.649e-02  2.818e-03 -1.391e-02  2.710e-02  2.390e-02  2.249e-08  1.763e-08  9.353e-10  1.151e-09    0.4582   -0.1674    0.2741   -0.2204    0.1654  5.373e-02    3.1416    3.1416  1.073e-20 -3.047e-21    3.1416  1.073e-20  110.0000 1
206  2.277e-02 -3.706e-03  2.474e-03 -3.165e-02 -2.664e-02  2.958e-03  1.993e-08  2.382e-08  9.506e-10  1.098e-09 -9.324e-02    0.2702   -0.3654   -0.3860   -0.1531  5.260e-02    3.1416    3.1416 -2.199e-22 -3.955e-22    0.8599 -2.199e-22  110.0000 1
207 -1.249e-02 -1.480e-02 -1.638e-02 -1.526e-02 -1.152e-02 -3.088e-02  2.308e-08  2.066e-08  7.905e-10  1.131e-09   -0.1488   -0.1113  5.538e-02    0.4483  2.533e-02   -0.2299    3.1416    3.1416 -2.857e-16  1.907e-18    0.7708 -2.857e-16  110.0000 1
208 -4.106e-02 -6.589e-03  1.142e-03 -2.308e-02 -2.364e-02  1.394e-02  1.890e-08  1.990e-08  1.061e-09  9.504e-10  6.066e-02    0.5660  8.139e-02    0.2390  6.954e-02   -0.5450    3.1416    3.1416  3.128e-20 -5.748e-24    3.1416  3.128e-20  110.0000 1
209 -2.728e-02 -1.532e-04  2.613e-02  3.317e-03 -2.589e-02  1.906e-03  2.106e-08  2.397e-08  1.179e-09  9.333e-10   -0.3944    0.2885   -0.4384    0.2427 -8.589e-02    0.2805    3.1416    3.1416  9.825e-21  2.458e-26    3.1416  9.825e-21  110.0000 1
210 -1.808e-03 -8.994e-03  8.752e-03 -2.702e-03  4.389e-03  2.368e-03  2.313e-08  2.127e-08  1.019e-09  1.095e-09 -4.422e-02    0.4311   -0.2923  4.498e-02   -0.2382 -7.363e-02    3.1416    3.1416 -4.252e-17  3.081e-22    3.1416 -4.252e-17  110.0000 1
211  2.744e-02 -7.783e-03 -3.177e-02  7.173e-03  1.665e-02 -3.650e-03  2.132e-08  2.002e-08  1.243e-09  9.275e-10   -0.1025   -0.3807   -0.5701   -0.3824 -4.258e-02   -0.2655    3.1416    3.1416  5.374e-20  8.784e-27    3.1416  5.374e-20  110.0000 1
212  1.302e-02  1.143e-02  5.324e-03 -2.434e-03  1.241e-02  5.007e-03  2.588e-08  1.897e-08  1.073e-09  1.028e-09    0.2268    0.3311   -0.1912   -0.4974   -0.1889  2.224e-02    3.1416    3.1416 -2.078e-20    0.    3.1416 -2.078e-20  110.0000 1
213  3.359e-04  5.260e-04  3.174e-02  2.052e-02 -2.618e-02  1.297e-02  2.084e-08  1.509e-08  9.636e-10  9.856e-10    0.3496  7.537e-02   -0.2919 -2.255e-02    0.3378   -0.1490    3.1416    3.1416 -7.884e-23  6.461e-21    3.1416 -7.884e-23  110.0000 1
214  3.556e-03  3.688e-02 -1.229e-02 -1.405e-03  1.197e-02 -2.169e-02  2.172e-08  2.318e-08  1.194e-09  9.649e-10    0.1493    0.1134    0.2534   -0.1605   -0.1009    0.3565    3.1416    3.1416 -4.579e-23    0.    3.1416 -4.579e-23  110.0000 1
215 -3.886e-02  3.919e-02 -1.251e-02 -1.749e-02 -2.865e-02  4.188e-03  2.395e-08  2.095e-08  1.334e-09  1.089e-09    0.1358    0.3508    0.5018 -9.413e-02    0.2267    0.1976    0.7152    3.1416  6.312e-19    0.    3.1416  6.312e-19  110.0000 1
216  1.643e-02 -2.303e-02 -1.250e-02  2.504e-02 -1.725e-02 -1.598e-02  2.162e-08  2.008e-08  8.638e-10  1.098e-09  3.863e-02   -0.2899    0.1254    0.3188  2.741e-02   -0.4518    3.1416    3.1416 -1.961e-22 -2.665e-21    3.1416 -1.961e-22  110.0000 1
217 -8.987e-03 -2.643e-02 -2.400e-02  1.111e-02 -1.652e-03  9.560e-03  2.609e-08  2.180e-08  9.370e-10  1.016e-09    0.5756    0.2593   -0.3944   -0.4940   -0.3146    0.1379    3.1416    3.1416 -2.653e-19  3.683e-23    0.8150 -2.653e-19  110.0000 1
218  1.929e-02  1.140e-02 -2.072e-02 -1.732e-02  7.759e-03 -2.380e-02  2.338e-08  2.234e-08  1.034e-09  7.475e-10  7.794e-02  9.185e-02 -6.686e-02 -5.320e-02    0.1056 -3.211e-02    3.1416    3.1416  9.399e-20  8.960e-25    3.1416  9.399e-20  110.0000 1
219  1.616e-02  1.433e-02 -4.703e-03  1.221e-02 -2.465e-02 -2.060e-02  2.116e-08  2.311e-08  1.022e-09  1.064e-09    0.1446    0.4296    0.2630   -0.3532    0.5971   -0.2694    3.1416    3.1416  1.652e-21  9.227e-22    3.1416  1.652e-21  110.0000 1
220  4.177e-03 -2.559e-02  3.858e-03 -1.483e-02 -7.080e-03  3.503e-03  2.282e-08  1.967e-08  1.026e-09  1.004e-09 -4.342e-02   -0.1979    0.2439    0.1887    0.2475    0.1392    3.1416    3.1416  5.175e-19 -1.140e-20    3.1416  5.175e-19  110.0000 1
221 -1.838e-02 -1.093e-02 -1.063e-02 -1.239e-03 -1.229e-02  7.738e-04  1.863e-08  2.625e-08  1.112e-09  1.169e-09  1.681e-02   -0.1270    0.1695 -6.577e-02   -0.2942    0.1340    3.1416    3.1416 -2.038e-21 -8.665e-22    0.6827 -2.038e-21  110.0000 1
222  5.259e-03 -2.698e-03  9.487e-03  1.317e-02 -5.202e-03  1.089e-02  2.107e-08  2.006e-08  1.001e-09  8.835e-10   -0.1572   -0.4444 -6.781e-02   -0.4321   -0.3220   -0.1489    3.1416    3.1416  1.487e-19  1.034e-24    3.1416  1.487e-19  110.0000 1
223  1.332e-02  1.045e-02 -3.788e-02 -4.743e-04 -1.005e-02 -1.501e-02  2.504e-08  2.133e-08  1.021e-09  1.045e-09    0.1085   -0.1158    0.1153    0.1605    0.1971    0.1306    3.1416    3.1416  2.165e-20 -2.474e-24    3.1416  2.165e-20  110.0000 1
224 -1.433e-02 -1.650e-02  9.363e-04  1.481e-03 -1.117e-02 -4.204e-03  2.542e-08  1.951e-08  8.820e-10  9.355e-10    0.1917  6.090e-02   -0.5538    0.1813  8.767e-02   -0.2038    3.1416    3.1416  9.718e-19  5.604e-26    3.1416  9.718e-19  110.0000 1
225 -1.608e-02  3.500e-02  1.624e-02  1.714e-02  2.046e-02  1.272e-02  1.986e-08  2.369e-08  8.263e-10  1.159e-09    0.2283   -0.9929   -0.3583    0.1241    0.3727  1.958e-02    3.1416    3.1416 -3.892e-21  9.101e-23    0.6704 -3.892e-21  110.0000 1
226  1.489e-02 -1.404e-02 -3.775e-02 -2.078e-02  1.575e-03 -9.683e-03  2.228e-08  1.912e-08  9.172e-10  1.170e-09    0.4956   -0.3539    0.4830   -0.1229  3.434e-02    0.1551    3.1416    3.1416  2.568e-19 -1.801e-19    3.1416  2.568e-19  110.0000 1
227 -1.154e-02  3.407e-02  6.073e-03  6.694e-04 -3.196e-02 -4.000e-03  2.400e-08  2.563e-08  9.837e-10  8.547e-10    0.1695 -8.396e-02  4.715e-02    0.1439   -0.3860    0.1909    3.1416    3.1416 -9.094e-22  2.512e-27    3.1416 -9.094e-22  110.0000 1
228  1.131e-02 -1.068e-02  5.374e-03  1.693e-03 -3.339e-03 -9.761e-03  2.179e-08  2.486e-08  9.883e-10  9.346e-10   -0.1400 -8.643e-02   -0.4864 -6.996e-02  7.634e-02  2.297e-02    3.1416    3.1416 -1.833e-21 -9.852e-21    3.1416 -1.833e-21  110.0000 1
229  1.501e-02  3.932e-03 -3.473e-02  4.927e-03 -7.216e-03 -2.270e-03  2.154e-08  2.317e-08  9.940e-10  9.237e-10   -0.3597   -0.2896    0.1927    0.1037  8.737e-02    0.1774    3.1416    3.1416 -2.608e-21  2.679e-23    3.1416 -2.608e-21  110.0000 1
230  2.669e-02  7.987e-03  1.684e-02  8.550e-03 -1.861e-02  7.816e-03  1.925e-08  2.189e-08  9.941e-10  9.800e-10   -0.7870    0.1972    0.3932   -0.1985 -6.742e-03    0.2283    3.1416    3.1416 -7.887e-19 -4.490e-19    3.1416 -7.887e-19  110.0000 1
231 -8.415e-03  3.720e-02 -1.500e-02 -1.507e-02  3.792e-02  1.257e-02  2.601e-08  2.328e-08  1.131e-09  9.958e-10   -0.2436 -2.377e-02   -0.8834    0.4225   -0.3952    0.1597    0.7970    3.1416  2.428e-20    0.    0.7453  2.428e-20  110.0000 1
232 -1.200e-02  1.289e-02 -2.199e-02 -9.659e-03 -5.651e-03  2.684e-02  2.212e-08  2.455e-08  9.887e-10  9.906e-10    0.2652   -0.1103    0.3801    0.1339    0.4764  3.926e-02    3.1416    3.1416 -5.062e-22 -6.354e-22    0.8670 -5.062e-22  110.0000 1
233 -1.313e-03 -1.931e-02  7.591e-03 -3.256e-02 -1.802e-02 -5.007e-03  2.114e-08  1.707e-08  1.189e-09  1.165e-09    0.1908    0.5421    0.6054  5.007e-02    0.2296  8.012e-02    3.1416    3.1416  1.251e-18  4.383e-24    3.1416  1.251e-18  110.0000 1
234 -1.142e-02 -3.059e-02  2.034e-02  2.689e-03 -1.220e-02 -1.051e-03  1.854e-08  2.479e-08  8.996e-10  9.291e-10   -0.3333   -0.4954   -0.4322   -0.3455   -0.3733   -0.3944    3.1416    3.1416 -3.998e-22 -4.020e-22    3.1416 -3.998e-22  110.0000 1
235  9.124e-03 -1.065e-02  1.703e-02 -4.117e-02  5.700e-03  1.748e-02  1.973e-08  2.523e-08  8.932e-10  9.892e-10   -0.2142   -0.1757   -0.3639   -0.3226  5.906e-02   -0.4322    3.1416    3.1416 -4.252e-18 -1.750e-19    0.8092 -4.252e-18  110.0000 1
236  6.825e-03  1.331e-02  4.881e-03 -2.544e-02  2.179e-02 -1.338e-03  2.449e-08  2.010e-08  1.103e-09  1.077e-09   -0.1821    0.2884    0.4851   -0.1552   -0.4011    0.1205    3.1416    3.1416 -1.028e-17  1.508e-27    3.1416 -1.028e-17  110.0000 1
237 -1.308e-02  1.192e-02  4.155e-03 -8.489e-03  3.598e-03  5.640e-03  2.141e-08  2.341e-08  8.276e-10  9.047e-10   -0.4088   -0.1822    0.4629    0.1423 -4.303e-02   -0.1914    3.1416    3.1416  1.267e-20  3.479e-17    3.1416  1.267e-20  110.0000 1
238  3.176e-02  6.211e-03  2.207e-03  5.560e-04  1.197e-02 -2.496e-02  2.036e-08  2.355e-08  1.040e-09  1.088e-09    0.1663   -0.1849   -0.2758    0.7123    0.7490   -0.4125    3.1416    3.1416  8.167e-17  6.770e-22    0.8411  8.167e-17  110.0000 1
239 -2.039e-02 -9.356e-03 -3.393e-02 -2.621e-02 -5.310e-03  2.200e-02  2.300e-08  1.988e-08  1.035e-09  9.543e-10   -0.6203   -0.2167    0.3394   -0.2177    0.4559    0.1795    3.1416    3.1416 -1.625e-20  7.638e-28    3.1416 -1.625e-20  110.0000 1
240 -6.038e-04 -7.298e-03  2.975e-03  6.467e-03 -1.875e-03 -2.323e-02  1.842e-08  2.002e-08  1.091e-09  1.102e-09   -0.2426   -0.2366  3.530e-02    0.5306 -5.361e-02  7.587e-02    3.1416    3.1416  2.116e-18  3.586e-17    3.1416  2.116e-18  110.0000 1
241 -1.744e-03  3.828e-02  1.819e-04 -2.092e-03  3.209e-02 -5.362e-03  2.296e-08  2.151e-08  8.110e-10  1.091e-09   -0.5804    0.3876  2.682e-02   -0.6447    0.1610    0.2845    3.1416    3.1416 -5.592e-17  1.899e-23    0.7161 -5.592e-17  110.0000 1
242 -3.859e-03  1.489e-02  1.580e-02  2.459e-04 -1.302e-02  1.417e-03  2.294e-08  2.299e-08  9.832e-10  1.124e-09    0.2976  2.252e-02    0.1311   -0.2864   -0.2816   -0.4492    3.1416    3.1416  1.326e-20 -6.620e-23    0.7405  1.326e-20  110.0000 1
243  4.903e-03 -3.592e-04  5.405e-03  2.680e-03  1.268e-02 -5.090e-04  2.645e-08  2.104e-08  1.152e-09  1.162e-09  7.621e-02   -0.1553 -3.559e-02   -0.5261    0.4534    0.2400    0.9279    3.1416 -9.589e-20  1.662e-21    0.7184 -9.589e-20  110.0000 1
244 -1.538e-02  3.477e-02 -1.906e-02  1.779e-02 -3.086e-03  8.474e-04  2.126e-08  1.814e-08  9.591e-10  1.101e-09 -8.859e-02    0.1831    0.3140   -0.3085   -0.3456    0.1381    3.1416    3.1416  7.463e-18 -2.782e-21    3.1416  7.463e-18  110.0000 1
245 -2.944e-03  5.082e-02  8.746e-03 -2.036e-02 -2.635e-02  1.420e-02  2.158e-08  2.116e-08  9.984e-10  1.216e-09    0.1289   -0.2729   -0.3056   -0.1796    0.2126   -0.1897    3.1416    3.1416  2.896e-17 -8.029e-21    0.8012  2.896e-17  110.0000 1
246  3.037e-04 -5.771e-02  6.133e-04  1.379e-02 -2.398e-02  6.241e-03  2.452e-08  2.019e-08  1.021e-09  1.096e-09    0.1220    0.4843  3.612e-02   -0.2649 -2.363e-02 -6.124e-02    3.1416    3.1416 -3.733e-20 -5.736e-23    3.1416 -3.733e-20  110.0000 1
247  2.322e-02  3.611e-03  7.592e-03 -6.206e-03 -1.272e-02  6.999e-03  2.325e-08  2.313e-08  1.012e-09  1.050e-09   -0.2255    0.1668   -0.3585 -4.698e-02    0.4412   -0.2773    3.1416    3.1416  1.529e-19 -3.020e-22    0.8558  1.529e-19  110.0000 1
248  1.732e-02  2.299e-02 -1.140e-02 -1.814e-02  1.547e-03  1.480e-02  2.186e-08  2.391e-08  8.992e-10  9.087e-10    0.3025  1.897e-02   -0.4987   -0.3806   -0.3961    0.7245    3.1416    3.1416 -3.588e-18  3.335e-16    3.1416 -3.588e-18  110.0000 1
249 -1.363e-02  7.824e-03 -1.485e-02  1.333e-05  2.318e-02 -2.231e-02  1.928e-08  1.990e-08  1.016e-09  1.047e-09 -5.927e-02  6.462e-02   -0.3586   -0.2767    0.4640    0.3414    3.1416    3.1416 -1.493e-16  1.267e-21    3.1416 -1.493e-16  110.0000 1
250  1.070e-03 -2.150e-02  1.173e-03  4.278e-03 -2.888e-03 -3.351e-02  2.177e-08  1.854e-08  1.057e-09  9.704e-10   -0.1173  7.114e-02    0.2093  4.685e-02    0.1472   -0.2003    3.1416    3.1416 -1.520e-20 -1.279e-22    3.1416 -1.520e-20  110.0000 1
251 -2.066e-03 -8.842e-03  2.673e-02  1.652e-03  6.053e-03 -4.582e-03  2.036e-08  2.269e-08  1.015e-09  1.187e-09   -0.2453 -9.699e-02 -2.045e-02    0.2929  6.671e-02    0.2804    3.1416    3.1416  2.375e-19 -1.259e-21    0.7456  2.375e-19  110.0000 1
252 -2.426e-02  6.810e-03 -2.436e-02 -1.275e-02  2.665e-02  4.621e-03  2.267e-08  2.395e-08  9.002e-10  9.929e-10    0.5385  6.367e-02 -1.283e-02  6.917e-02   -0.5676    0.2019    3.1416    3.1416 -2.959e-21  9.572e-21    0.7478 -2.959e-21  110.0000 1
253  2.809e-02 -1.115e-02 -3.306e-02  2.669e-03 -5.584e-03 -4.997e-03  2.110e-08  2.513e-08  9.512e-10  1.104e-09  9.327e-02   -0.2011  1.794e-02 -6.978e-03   -0.3562    0.1142    3.1416    3.1416  2.589e-20  3.061e-21    0.6940  2.589e-20  110.0000 1
254  9.068e-03 -8.441e-03 -2.184e-03 -2.546e-02 -1.601e-02 -6.639e-03  2.010e-08  2.464e-08  8.492e-10  1.061e-09    0.2580   -0.1974    0.3357    0.1690   -0.6865    0.1105    3.1416    3.1416  1.292e-18  2.325e-17    0.7646  1.292e-18  110.0000 1
255 -1.574e-02 -2.186e-02 -2.166e-02  6.443e-03  1.659e-03 -2.038e-02  2.320e-08  2.148e-08  1.027e-09  9.048e-10   -0.2403    0.3792  3.854e-02 -1.942e-02    0.2303  1.035e-02    3.1416    3.1416 -1.008e-21 -6.462e-26    3.1416 -1.008e-21  110.0000 1
256  1.738e-02 -2.374e-02  2.722e-02 -1.400e-02  1.095e-02  5.582e-03  2.024e-08  2.162e-08  9.192e-10  1.135e-09    0.2369    0.4681 -5.631e-02   -0.7551    0.2455   -0.4296    3.1416    3.1416 -8.956e-21 -2.183e-24    0.8719 -8.956e-21  110.0000 1
257 -9.412e-03  2.563e-02 -6.936e-03  1.183e-02 -3.563e-03 -2.056e-02  2.219e-08  2.281e-08  9.699e-10  9.049e-10   -0.5417    0.1460   -0.5143    0.4626 -4.897e-04   -0.1102    3.1416    3.1416  3.915e-19 -7.758e-22    3.1416  3.915e-19  110.0000 1
258  9.158e-03 -1.756e-02 -1.333e-02  7.779e-03 -1.552e-02  1.018e-02  2.491e-08  1.910e-08  9.409e-10  1.209e-09    0.6011  7.369e-02   -0.1662    0.1487   -0.2335   -0.2271    3.1416    3.1416  1.715e-19 -3.763e-23    0.7679  1.715e-19  110.0000 1
259 -7.843e-03  4.449e-03 -2.168e-02 -1.252e-02  2.097e-02  1.009e-02  2.149e-08  2.205e-08  9.691e-10  1.005e-09  3.598e-02   -0.3051   -0.7708   -0.7865 -3.859e-02    0.5524    3.1416    3.1416  3.129e-19 -9.166e-24    3.1416  3.129e-19  110.0000 1
260 -1.731e-02 -4.228e-02 -3.839e-03 -2.117e-03  2.542e-02  9.138e-03  2.203e-08  1.986e-08  9.877e-10  1.094e-09  3.184e-03    0.3318    0.2884 -5.308e-02    0.2280    0.1312    3.1416    3.1416  7.025e-20 -1.280e-21    3.1416  7.025e-20  110.0000 1
261 -1.879e-03 -4.626e-