$DATA1 SOURCE='HSPICE' VERSION='I-2013.12-SP1-1 32-BIT'
$OPTION MEASFORM=1
.TITLE '****summer 2017 necrl stt latch wite path monte carlo analysis****'
index 1:vdvtn@dvtn_intra 5:vdvtn@dvtn_intra 2:vdvtn@dvtn_intra 3:vdvtp@dvtp_intra 6:vdvtp@dvtp_intra 4:vdvtp@dvtp_intra 7:r1@dr_intra 8:r1@dr_intra 7:tox1@dt_intra 8:tox1@dt_intra 9:mc_cnr_rnd@9:mc_cnr_round 10:mc_cnr_rnd@10:mc_cnr_round 11:mc_cnr_rnd@11:mc_cnr_round 12:mc_cnr_rnd@12:mc_cnr_round 13:mc_cnr_rnd@13:mc_cnr_round 14:mc_cnr_rnd@14:mc_cnr_round ntrh ntdh1 ntrl1 ntdl ntdh2 ntrl2 temper alter#
1  2.229e-02  2.884e-03  4.315e-03  1.010e-02  2.581e-03  1.732e-02  2.301e-08  2.169e-08  8.941e-10  1.016e-09   -0.3526    0.2628   -0.4049    0.3717    0.3675   -0.3516    3.1416    3.1416 -5.819e-21 -3.106e-21    3.1416 -5.819e-21  110.0000 2
2 -6.442e-03 -3.397e-02 -1.306e-02  2.291e-02 -1.783e-02  4.093e-03  1.995e-08  2.265e-08  1.064e-09  1.047e-09   -0.1130   -0.7910 -9.180e-03    0.4226    0.1816   -0.3755    3.1416    3.1416  4.821e-19 -5.915e-22    3.1416  4.821e-19  110.0000 2
3 -4.668e-03 -1.888e-02  1.873e-02 -5.503e-03 -2.128e-02 -1.437e-02  2.210e-08  2.146e-08  1.049e-09  1.028e-09    0.2688 -8.206e-02   -0.7323 -7.671e-02    0.6821 -5.626e-02    3.1416    3.1416 -1.647e-21 -6.198e-25    3.1416 -1.647e-21  110.0000 2
4  2.764e-02 -1.604e-02 -2.069e-03  2.711e-02  3.791e-04 -3.213e-03  2.151e-08  2.110e-08  1.185e-09  9.215e-10   -0.2869    0.1682 -6.765e-02   -0.2085   -0.2451    0.1329    3.1416    3.1416 -2.161e-20 -2.118e-22    3.1416 -2.161e-20  110.0000 2
5  3.547e-02 -7.484e-03  8.710e-04  1.181e-02 -3.539e-03  2.177e-03  2.542e-08  1.686e-08  8.785e-10  8.717e-10    0.3681   -0.6111   -0.3695    0.5093    0.2121   -0.1991    3.1416    3.1416 -2.868e-18 -7.700e-26    3.1416 -2.868e-18  110.0000 2
6 -6.593e-03 -1.054e-02 -2.816e-02  1.014e-02  3.592e-02  5.078e-03  2.021e-08  2.180e-08  1.108e-09  1.120e-09   -0.1321    0.2474    0.3204    0.3523  6.447e-02 -6.158e-02    3.1416    3.1416  4.895e-17 -3.991e-21    3.1416  4.895e-17  110.0000 2
7 -4.175e-03  1.725e-02  2.227e-02 -2.073e-03 -3.626e-02  5.019e-03  1.931e-08  2.219e-08  9.813e-10  9.846e-10    0.1698    0.6836    0.1004  7.329e-02    0.1979 -4.963e-03    3.1416    3.1416  1.123e-20 -4.146e-21    3.1416  1.123e-20  110.0000 2
8  1.165e-02  7.464e-03  5.455e-03  9.849e-03 -1.440e-02 -1.088e-03  2.135e-08  2.017e-08  1.130e-09  1.267e-09  1.803e-02 -9.349e-02  5.797e-02    0.1469    0.1146  3.341e-03    3.1416    3.1416 -7.140e-19  1.474e-16    3.1416 -7.140e-19  110.0000 2
9  3.226e-02  8.197e-04  1.808e-02 -2.354e-03 -8.671e-03  2.069e-02  2.038e-08  2.660e-08  1.098e-09  8.922e-10   -0.2584  7.273e-02    0.1671 -5.645e-03   -0.2195    0.2950    3.1416    3.1416 -2.272e-16 -4.610e-25    3.1416 -2.272e-16  110.0000 2
10  7.691e-03 -3.805e-03  2.437e-02  6.407e-03 -1.593e-02  1.916e-02  2.280e-08  1.864e-08  1.036e-09  8.545e-10  3.720e-02 -1.236e-02  9.200e-02   -0.2633    0.6758    0.2785    3.1416    3.1416  2.350e-20 -2.994e-24    3.1416  2.350e-20  110.0000 2
11  1.894e-02 -3.788e-02 -9.352e-04 -2.888e-02  2.213e-02  1.933e-02  2.166e-08  2.094e-08  9.786e-10  1.172e-09    0.4163   -0.4174   -0.2350    0.3212    0.5580    0.4815    3.1416    3.1416  2.786e-19  1.231e-21    3.1416  2.786e-19  110.0000 2
12 -2.177e-02 -4.387e-03  2.009e-02 -2.921e-02  8.044e-03  2.843e-02  2.571e-08  1.776e-08  1.047e-09  9.213e-10    0.1907   -0.2157   -0.6731  7.316e-02 -3.811e-02   -0.2444    3.1416    3.1416  6.942e-20 -3.224e-24    3.1416  6.942e-20  110.0000 2
13  7.467e-03  4.558e-03 -2.588e-02  2.126e-02  1.350e-02  1.616e-02  2.492e-08  2.620e-08  1.089e-09  9.703e-10  9.671e-02   -0.4450  6.241e-02    0.2124    0.2028    0.1667    3.1416    3.1416  2.012e-17    0.    0.9080  2.012e-17  110.0000 2
14 -2.094e-02  1.563e-02 -6.997e-03 -1.870e-02  2.712e-02 -2.272e-02  2.317e-08  2.210e-08  1.088e-09  9.816e-10  1.388e-02    0.3066  2.018e-02 -4.870e-03    0.1916   -0.2676    3.1416    3.1416  5.433e-22  1.886e-23    3.1416  5.433e-22  110.0000 2
15 -1.859e-02 -2.266e-02 -8.809e-03 -1.770e-02 -1.505e-02  9.577e-03  2.127e-08  2.397e-08  8.760e-10  7.923e-10 -8.763e-03   -0.2326    0.3242    0.1709   -0.4857    0.3591    3.1416    3.1416  7.366e-19 -5.490e-20    3.1416  7.366e-19  110.0000 2
16  4.263e-03 -5.737e-03  1.140e-02  1.509e-02 -2.056e-03  1.414e-02  2.345e-08  2.348e-08  8.485e-10  1.020e-09   -0.5017  1.368e-02    0.1374   -0.1912    0.1290    0.2282    3.1416    3.1416  4.332e-20  2.932e-24    3.1416  4.332e-20  110.0000 2
17 -2.126e-02  3.563e-02  2.800e-02  3.387e-04  2.341e-02 -1.235e-02  1.956e-08  2.325e-08  1.086e-09  1.088e-09   -0.1248   -0.6080  4.051e-02    0.3724   -0.8328    0.1854    3.1416    3.1416 -7.685e-22 -7.362e-24    3.1416 -7.685e-22  110.0000 2
18  1.379e-02 -1.279e-02 -1.890e-03 -1.495e-02 -1.056e-02  1.755e-02  2.081e-08  2.350e-08  9.773e-10  1.241e-09    0.3227   -0.1603   -0.6670    0.3657    0.2637   -0.3926    3.1416    3.1416  1.509e-19 -3.941e-22    0.7722  1.509e-19  110.0000 2
19 -2.746e-02  5.700e-03 -1.654e-03  1.931e-02 -5.848e-03 -4.899e-03  2.084e-08  2.778e-08  9.057e-10  1.000e-09   -0.1792   -0.1877    0.1971    0.4250    0.2160   -0.1465    3.1416    3.1416  1.368e-19  5.755e-21    0.7997  1.368e-19  110.0000 2
20  1.622e-02 -3.737e-02 -2.512e-02 -4.881e-03  2.657e-04  1.382e-02  2.433e-08  2.298e-08  1.008e-09  1.023e-09    0.1880  4.067e-02   -0.1912    0.2573    0.6929   -0.3331    3.1416    3.1416 -6.373e-22  8.315e-26    3.1416 -6.373e-22  110.0000 2
21 -2.745e-02  1.408e-02 -1.138e-02  2.077e-04 -8.802e-04  3.484e-02  2.238e-08  2.180e-08  1.034e-09  9.164e-10   -0.4696 -3.771e-02    0.1096 -5.580e-02    0.3861  6.236e-02    3.1416    3.1416  3.291e-21  2.724e-25    3.1416  3.291e-21  110.0000 2
22  7.104e-03  1.365e-02  3.988e-03 -1.523e-03  1.701e-02  1.185e-02  2.543e-08  2.288e-08  1.093e-09  1.046e-09    0.4225   -0.1649   -0.2095   -0.2523 -8.417e-02   -0.3726    3.1416    3.1416  4.997e-17    0.    3.1416  4.997e-17  110.0000 2
23 -2.383e-03 -3.371e-02  4.838e-03  1.036e-02  4.617e-03  1.797e-02  2.572e-08  2.138e-08  8.492e-10  8.609e-10   -0.1009   -0.2245 -7.233e-02   -0.1575    0.1029   -0.1093    3.1416    3.1416 -4.428e-20 -3.003e-22    3.1416 -4.428e-20  110.0000 2
24  5.108e-03  2.792e-02 -1.308e-02  7.569e-03  1.163e-02  1.477e-02  1.856e-08  2.195e-08  1.109e-09  1.254e-09 -3.658e-02  5.165e-02   -0.5738    0.2306    0.8243  2.834e-02    3.1416    3.1416  5.534e-24  2.307e-23    3.1416  5.534e-24  110.0000 2
25 -2.845e-02 -2.558e-02 -1.958e-02  1.321e-03  7.111e-03 -2.341e-02  2.276e-08  2.308e-08  9.061e-10  9.327e-10    0.3393   -0.1561   -0.3646   -0.4689 -2.103e-02 -3.085e-02    3.1416    3.1416  4.726e-20  3.011e-23    3.1416  4.726e-20  110.0000 2
26 -4.398e-03  1.605e-02  9.938e-04  5.813e-03 -4.023e-03  7.294e-03  1.988e-08  2.241e-08  1.265e-09  1.042e-09   -0.3058    0.4492   -0.2109   -0.1802    0.4267   -0.1932    3.1416    3.1416 -1.853e-22  3.025e-26    3.1416 -1.853e-22  110.0000 2
27  9.114e-03  2.503e-02  1.236e-02 -2.423e-03  1.169e-02  9.580e-03  1.722e-08  2.083e-08  9.310e-10  9.532e-10    0.1645  8.786e-02    0.2174    0.2592 -5.948e-02    0.1504    3.1416    3.1416  1.314e-22 -8.183e-23    3.1416  1.314e-22  110.0000 2
28 -1.888e-02 -3.542e-03 -1.411e-02  1.978e-02 -7.797e-03 -8.636e-03  1.978e-08  2.023e-08  7.511e-10  9.505e-10    0.1704  3.829e-02 -1.228e-02   -0.3567   -0.1320   -0.1949    3.1416    3.1416  2.276e-20 -6.473e-21    3.1416  2.276e-20  110.0000 2
29 -3.143e-02 -3.249e-03 -4.121e-03  8.439e-04  1.660e-02 -4.672e-03  2.321e-08  2.356e-08  1.069e-09  8.872e-10 -2.803e-02 -9.397e-02    0.2760    0.1219    0.1379 -3.095e-02    3.1416    3.1416  5.838e-21 -5.603e-24    3.1416  5.838e-21  110.0000 2
30 -1.083e-02  6.801e-03  3.054e-03  3.156e-02  8.372e-03  4.815e-03  2.102e-08  2.351e-08  9.368e-10  9.213e-10    0.1405   -0.3064    0.3957   -0.5407   -0.4298   -0.1291    3.1416    3.1416 -6.868e-22  3.139e-22    3.1416 -6.868e-22  110.0000 2
31  1.736e-02 -4.885e-02  7.717e-03  5.136e-03 -5.590e-03  3.005e-02  2.155e-08  2.048e-08  1.078e-09  8.836e-10   -0.1833   -0.6812 -2.529e-04    0.5461    0.2095   -0.1190    3.1416    3.1416 -4.674e-22  9.236e-25    3.1416 -4.674e-22  110.0000 2
32 -1.507e-02 -1.046e-03  2.532e-03 -9.613e-03  5.769e-03  3.709e-02  1.911e-08  2.050e-08  1.103e-09  1.223e-09    0.4183   -0.5379   -0.1465   -0.1522    0.1874 -7.633e-03    3.1416    3.1416 -5.322e-21  5.414e-22    3.1416 -5.322e-21  110.0000 2
33 -2.111e-02 -1.641e-02 -3.129e-02  1.560e-02 -2.903e-03  4.557e-02  2.432e-08  1.816e-08  1.031e-09  9.379e-10   -0.1389    0.1730    0.1758   -0.4213   -0.2198   -0.2475    3.1416    3.1416  1.872e-19 -1.533e-22    3.1416  1.872e-19  110.0000 2
34  2.550e-03 -3.796e-03  2.652e-02  2.109e-02 -3.916e-03  8.952e-03  1.604e-08  2.227e-08  1.012e-09  9.097e-10   -0.1521    0.2785   -0.2018    0.2692 -9.511e-02    0.2765    3.1416    3.1416  2.130e-23 -2.266e-22    3.1416  2.130e-23  110.0000 2
35  3.872e-02  6.917e-03 -1.770e-02 -4.102e-03 -2.559e-02  2.204e-02  2.449e-08  1.950e-08  1.110e-09  1.002e-09    0.2535  3.840e-02 -7.630e-02   -0.1249    0.6406  7.392e-02    3.1416    3.1416 -4.009e-19 -6.277e-24    3.1416 -4.009e-19  110.0000 2
36  1.117e-03 -1.293e-02 -1.952e-03 -6.976e-03  6.992e-04 -1.047e-02  2.476e-08  2.515e-08  1.209e-09  1.075e-09   -0.4684   -0.5522    0.1934    0.6261    0.3234    0.2766    0.7776    3.1416 -2.584e-21    0.    0.8669 -2.584e-21  110.0000 2
37  6.400e-03  1.174e-02 -2.666e-02  2.369e-02  1.091e-02  2.626e-03  2.162e-08  2.514e-08  1.071e-09  9.292e-10   -0.4749    0.4721    0.2692   -0.2080   -0.2277    0.2263    3.1416    3.1416 -1.366e-21 -3.943e-24    3.1416 -1.366e-21  110.0000 2
38  3.669e-03 -3.471e-02 -2.639e-02 -1.549e-02  2.943e-02 -1.027e-03  2.396e-08  2.551e-08  9.054e-10  7.977e-10   -0.1403    0.1598   -0.3664 -8.846e-02   -0.2020   -0.3851    3.1416    3.1416  6.236e-20  1.362e-23    3.1416  6.236e-20  110.0000 2
39 -8.623e-03  7.211e-04  3.709e-03  4.429e-05  2.523e-03  1.942e-02  2.379e-08  2.352e-08  1.126e-09  1.145e-09    0.3128    0.5050    0.2449    0.5305    0.1017    0.5916    3.1416    3.1416  7.468e-17 -5.526e-24    0.8770  7.468e-17  110.0000 2
40 -3.151e-03  8.962e-03  3.676e-03 -2.901e-04  1.615e-02 -1.565e-02  2.259e-08  1.936e-08  1.035e-09  1.168e-09 -1.081e-02   -0.6546    0.6360    0.3567    0.1822    0.6395    3.1416    3.1416  4.053e-20  8.700e-21    3.1416  4.053e-20  110.0000 2
41  1.713e-03 -1.645e-02  2.517e-02  6.710e-03 -3.415e-02  3.647e-04  2.111e-08  2.117e-08  1.026e-09  9.554e-10   -0.6446 -5.792e-03   -0.2689   -0.2620  4.796e-02   -0.4516    3.1416    3.1416  2.194e-20  5.545e-25    3.1416  2.194e-20  110.0000 2
42 -8.329e-03 -1.462e-02  3.478e-02 -1.649e-02  1.610e-02 -9.736e-03  1.988e-08  2.241e-08  1.109e-09  8.448e-10    0.4436    0.1699    0.8609    0.4710    0.3386    0.2445    3.1416    3.1416 -7.227e-22 -3.071e-26    3.1416 -7.227e-22  110.0000 2
43 -1.167e-02 -9.538e-03  2.589e-02  2.345e-02  1.391e-03  6.163e-03  2.069e-08  2.352e-08  1.124e-09  1.092e-09 -9.423e-02 -5.424e-02  6.117e-02 -6.132e-02    0.2238  4.152e-03    3.1416    3.1416 -1.229e-21  1.382e-26    3.1416 -1.229e-21  110.0000 2
44  9.502e-04 -9.205e-03 -5.507e-04 -2.112e-02  6.594e-03  5.525e-03  2.559e-08  2.066e-08  9.629e-10  8.798e-10   -0.2720    0.4222   -0.5476   -0.4791   -0.2601  3.762e-02    3.1416    3.1416  3.429e-19 -1.979e-25    3.1416  3.429e-19  110.0000 2
45 -4.254e-03  6.585e-03  7.420e-03  5.825e-03 -8.478e-03 -3.608e-02  1.922e-08  2.671e-08  8.708e-10  1.190e-09    0.1211    0.3125   -0.2556   -0.3661    0.3654   -0.2323    3.1416    3.1416 -8.231e-21  4.034e-18    0.6915 -8.231e-21  110.0000 2
46 -2.068e-02  2.653e-02 -1.299e-02 -3.309e-03  6.251e-04  1.117e-02  2.035e-08  2.513e-08  1.147e-09  1.075e-09  9.157e-02   -0.2724   -0.2350 -6.273e-02    0.1167    0.3078    3.1416    3.1416  8.693e-19  1.717e-23    3.1416  8.693e-19  110.0000 2
47  1.893e-04 -3.848e-03 -8.119e-03 -5.185e-03  3.838e-02  6.629e-03  2.307e-08  2.655e-08  1.095e-09  1.064e-09    0.1610    0.1150    0.1772  2.057e-02   -0.3147   -0.2633    3.1416    3.1416 -2.631e-16  5.374e-24    0.7167 -2.631e-16  110.0000 2
48 -5.732e-03 -2.723e-02 -6.315e-04 -6.649e-03 -2.058e-03  1.448e-02  1.645e-08  2.139e-08  9.621e-10  1.152e-09 -3.266e-03   -0.3010    0.3608    0.2638   -0.3286   -0.1233    3.1416    3.1416 -4.709e-20 -4.144e-21    3.1416 -4.709e-20  110.0000 2
49  1.951e-02 -1.870e-03 -3.201e-02  2.061e-02 -2.108e-03  1.040e-02  2.289e-08  2.349e-08  1.070e-09  8.059e-10  9.401e-02    0.2882 -8.265e-02   -0.1410    0.2351   -0.2915    3.1416    3.1416 -1.663e-21    0.    3.1416 -1.663e-21  110.0000 2
50  3.199e-02 -1.183e-03 -1.760e-03  1.217e-02  8.633e-03  3.274e-03  1.882e-08  2.254e-08  9.016e-10  8.314e-10   -0.1531 -8.336e-02    0.1899   -0.1612  1.574e-02   -0.4390    3.1416    3.1416  1.650e-23  3.347e-20    3.1416  1.650e-23  110.0000 2
51 -8.753e-03  1.144e-02 -1.451e-02  2.363e-02 -5.342e-03 -3.295e-03  2.036e-08  2.403e-08  1.060e-09  1.184e-09   -0.1799   -0.2786  7.316e-02    0.2580    0.1635    0.1400    3.1416    3.1416  6.169e-18  3.645e-20    1.2770  6.169e-18  110.0000 2
52  1.499e-02 -3.695e-03  7.905e-04  9.712e-03 -2.138e-03  9.840e-03  2.073e-08  1.765e-08  8.652e-10  1.169e-09   -0.4423    0.1180  2.864e-02   -0.2017   -0.8011    0.1159    3.1416    3.1416 -7.269e-19  2.119e-17    3.1416 -7.269e-19  110.0000 2
53  3.825e-04  3.238e-02  2.454e-02 -2.342e-03  3.944e-03  1.316e-02  2.064e-08  2.339e-08  8.826e-10  1.016e-09 -4.085e-02  9.731e-02  1.606e-02   -0.1916   -0.2867  2.385e-02    3.1416    3.1416 -1.754e-21 -2.244e-23    3.1416 -1.754e-21  110.0000 2
54 -9.121e-05 -8.411e-03 -7.851e-03  2.035e-02 -4.894e-03 -5.961e-03  2.211e-08  1.985e-08  1.055e-09  1.076e-09 -2.101e-02   -0.2209    0.3588   -0.7334 -9.504e-03   -0.1887    3.1416    3.1416 -4.960e-20  4.619e-25    3.1416 -4.960e-20  110.0000 2
55  9.457e-03  2.607e-03 -3.479e-03  4.538e-03 -7.049e-03  1.237e-02  2.401e-08  2.376e-08  1.021e-09  1.126e-09    0.1398   -0.6714   -0.2735    0.2217  2.950e-02   -0.4059    3.1416    3.1416 -1.505e-20  2.768e-25    0.8409 -1.505e-20  110.0000 2
56  1.718e-02  2.293e-02  2.468e-02 -1.290e-02 -3.338e-03 -1.721e-03  1.954e-08  2.214e-08  1.025e-09  1.182e-09  6.517e-02 -9.655e-02    0.2333 -6.378e-02   -0.3610 -7.468e-02    3.1416    3.1416 -1.881e-18 -1.295e-24    3.1416 -1.881e-18  110.0000 2
57 -2.236e-02  1.340e-02  1.589e-02 -9.470e-03 -2.317e-02 -4.050e-02  2.151e-08  2.179e-08  9.386e-10  1.090e-09    0.1557   -0.1961 -6.823e-02   -0.1595    0.1231   -0.5028    3.1416    3.1416  3.576e-19  3.614e-17    3.1416  3.576e-19  110.0000 2
58 -1.436e-02 -2.484e-04  2.232e-02 -1.130e-02  6.708e-03  7.402e-03  2.050e-08  2.524e-08  1.228e-09  8.140e-10    0.1525  3.321e-02   -0.1038   -0.7186   -0.4302   -0.4696    3.1416    3.1416  1.033e-19    0.    3.1416  1.033e-19  110.0000 2
59 -1.059e-02  3.060e-02  6.156e-03  1.475e-02 -8.013e-03 -1.322e-02  1.938e-08  2.362e-08  1.033e-09  9.291e-10  3.463e-02    0.3430    0.2333  9.343e-02  3.207e-02 -4.283e-02    3.1416    3.1416 -3.345e-21 -4.213e-21    3.1416 -3.345e-21  110.0000 2
60  5.500e-03 -1.944e-02 -2.924e-02  1.279e-03  1.734e-02 -2.058e-02  2.058e-08  2.057e-08  9.171e-10  1.212e-09    0.5343    0.1797    0.3266   -0.2408    0.5903   -0.3043    3.1416    3.1416  6.489e-20 -3.389e-21    3.1416  6.489e-20  110.0000 2
61  5.925e-03 -1.469e-02 -8.958e-03  1.593e-03  2.933e-02 -2.417e-02  2.152e-08  2.155e-08  1.174e-09  9.296e-10   -0.1785   -0.1593    0.3258 -5.609e-02    0.3654   -0.1080    3.1416    3.1416 -1.679e-19  6.138e-26    3.1416 -1.679e-19  110.0000 2
62 -1.388e-02 -3.172e-02  1.827e-02  1.058e-02  2.393e-02 -2.698e-02  2.392e-08  1.959e-08  9.301e-10  1.125e-09   -0.2588   -0.5548 -3.440e-02    0.4572   -0.1718    0.3882    3.1416    3.1416 -3.425e-19  1.321e-18    3.1416 -3.425e-19  110.0000 2
63 -4.269e-02  1.206e-02 -4.913e-03 -2.757e-02 -2.314e-02 -8.842e-03  1.724e-08  2.711e-08  1.038e-09  9.710e-10    0.7243 -7.299e-02   -0.2487  1.362e-02    0.7251   -0.4599    3.1416    3.1416  9.819e-20 -2.256e-22    3.1416  9.819e-20  110.0000 2
64 -1.059e-02  2.033e-02  6.554e-03  5.912e-03 -3.130e-02 -4.734e-03  2.054e-08  2.203e-08  1.083e-09  1.006e-09    0.1606    0.1627   -0.4516    0.2707 -1.406e-02 -2.913e-02    3.1416    3.1416  5.810e-19  5.295e-23    3.1416  5.810e-19  110.0000 2
65  1.847e-02 -1.435e-02 -1.223e-02 -5.816e-03 -3.657e-02  2.905e-02  2.010e-08  2.335e-08  9.363e-10  7.050e-10 -8.596e-02    0.2101  4.847e-02  4.206e-02 -1.721e-02   -0.5123    3.1416    3.1416 -1.034e-19 -1.928e-21    3.1416 -1.034e-19  110.0000 2
66 -3.790e-03  1.144e-02 -1.264e-03  1.505e-02  1.624e-02  4.312e-03  2.130e-08  2.452e-08  7.816e-10  9.753e-10    0.4353   -0.1571    0.4496 -4.216e-02   -0.4760   -0.3550    3.1416    3.1416 -2.260e-18 -6.148e-21    3.1416 -2.260e-18  110.0000 2
67 -8.135e-03  3.059e-02 -1.690e-02 -6.786e-03 -2.732e-02  1.348e-02  1.935e-08  2.469e-08  1.135e-09  8.838e-10   -0.1038  3.935e-02   -0.4522 -7.834e-03 -3.884e-02   -0.6875    3.1416    3.1416  1.020e-21  1.150e-27    3.1416  1.020e-21  110.0000 2
68 -2.941e-02 -3.702e-02 -1.363e-02  2.007e-02  9.261e-03  1.885e-02  2.394e-08  2.204e-08  1.020e-09  1.020e-09  4.087e-02    0.2897   -0.2069  6.358e-02 -7.978e-02    0.1640    3.1416    3.1416  4.318e-19  8.215e-25    3.1416  4.318e-19  110.0000 2
69  1.395e-02 -1.930e-02 -1.310e-03  9.910e-03  9.613e-03 -2.280e-02  2.335e-08  1.933e-08  1.101e-09  9.146e-10    0.4631 -7.164e-02   -0.1410  8.419e-02    0.3559   -0.3677    3.1416    3.1416 -6.150e-21 -1.918e-26    3.1416 -6.150e-21  110.0000 2
70 -4.288e-03 -6.605e-03 -6.139e-03 -2.930e-03 -1.891e-02  1.731e-02  1.981e-08  2.285e-08  1.063e-09  1.015e-09   -0.3158    0.2627  3.473e-02   -0.6896 -6.047e-02   -0.1570    3.1416    3.1416  9.798e-20  1.444e-23    3.1416  9.798e-20  110.0000 2
71 -6.160e-03 -1.330e-02  1.752e-03 -9.285e-03  6.273e-03 -1.530e-02  2.160e-08  1.978e-08  1.014e-09  9.080e-10   -0.5013 -8.370e-02 -1.808e-02   -0.5821   -0.1827   -0.3019    3.1416    3.1416  1.756e-17 -2.685e-22    3.1416  1.756e-17  110.0000 2
72  3.091e-02  1.808e-03 -3.703e-02  2.148e-02 -1.840e-02  7.411e-03  1.958e-08  2.090e-08  1.056e-09  1.045e-09    0.1328 -7.931e-02   -0.3442    0.3489  8.153e-05   -0.4509    3.1416    3.1416  2.340e-19  2.629e-23    3.1416  2.340e-19  110.0000 2
73  5.874e-03  1.721e-03 -6.198e-03  5.275e-03 -3.857e-02  1.990e-02  2.163e-08  1.916e-08  9.059e-10  8.512e-10    0.3483    0.2573   -0.1233  2.474e-02   -0.3088    0.6532    3.1416    3.1416  4.397e-18 -3.911e-18    3.1416  4.397e-18  110.0000 2
74  5.457e-03 -1.946e-02 -6.500e-03  2.595e-03 -7.020e-04 -3.161e-02  2.377e-08  2.558e-08  1.148e-09  1.112e-09    0.2631   -0.4013  1.956e-02  3.728e-02    0.1550    0.4832    3.1416    3.1416 -3.095e-21    0.    0.7753 -3.095e-21  110.0000 2
75 -2.947e-02 -2.240e-02 -2.076e-02  5.239e-03 -2.069e-03 -1.872e-03  2.187e-08  2.147e-08  1.108e-09  1.204e-09    0.4446    0.2294  3.590e-03   -0.2870    0.2388 -4.507e-02    3.1416    3.1416 -1.521e-20 -3.386e-21    3.1416 -1.521e-20  110.0000 2
76 -1.320e-02 -1.548e-02  3.309e-02 -1.373e-02  3.288e-02  1.027e-02  2.490e-08  2.615e-08  9.957e-10  9.468e-10    0.2721 -1.185e-02   -0.1130   -0.6069   -0.1357    0.3658    3.1416    3.1416  1.919e-20    0.    0.7847  1.919e-20  110.0000 2
77 -3.747e-02 -2.609e-02  1.020e-02  1.389e-02 -1.475e-02  1.911e-02  2.245e-08  2.087e-08  1.027e-09  8.951e-10    0.2827    0.1917    0.3534 -4.855e-02   -0.2926  1.012e-02    3.1416    3.1416  1.692e-20  2.873e-25    3.1416  1.692e-20  110.0000 2
78 -1.199e-02 -2.915e-02 -1.330e-02 -2.177e-02  2.390e-02 -1.775e-02  2.315e-08  2.186e-08  9.897e-10  9.552e-10  7.031e-02   -0.3130    0.1241  2.962e-02    0.2863    0.1568    3.1416    3.1416  1.824e-18  2.037e-22    3.1416  1.824e-18  110.0000 2
79 -4.147e-03  7.451e-03 -2.341e-03  5.415e-02 -3.139e-02  3.269e-04  2.749e-08  2.402e-08  9.032e-10  9.366e-10    0.1806    0.5641    0.7801 -2.207e-02   -0.5462   -0.1101    3.1416    3.1416  5.703e-20  1.267e-25    3.1416  5.703e-20  110.0000 2
80  8.739e-03 -2.058e-05 -1.822e-02  1.744e-02 -4.412e-04  6.049e-03  2.130e-08  2.033e-08  1.151e-09  1.070e-09    0.1971   -0.2843 -8.583e-02   -0.2056    0.4173    0.2453    3.1416    3.1416 -7.430e-20 -7.507e-25    3.1416 -7.430e-20  110.0000 2
81  1.388e-02 -6.115e-03  1.497e-02  5.215e-03 -2.783e-02 -2.337e-02  1.867e-08  2.503e-08  8.811e-10  1.052e-09   -0.1031    0.1370  9.140e-02   -0.3460    0.4127 -6.599e-02    3.1416    3.1416  1.022e-22 -1.585e-20    3.1416  1.022e-22  110.0000 2
82 -1.211e-02 -1.824e-03  5.885e-04 -2.074e-02  1.032e-02  1.330e-02  2.105e-08  2.012e-08  9.842e-10  1.109e-09  8.392e-03   -0.3593   -0.3716   -0.2640 -9.923e-02 -1.264e-02    3.1416    3.1416  3.768e-20  4.046e-19    3.1416  3.768e-20  110.0000 2
83  2.943e-03  1.562e-02 -1.589e-02  3.382e-02  2.563e-02  6.828e-03  2.089e-08  2.374e-08  1.154e-09  1.140e-09 -8.752e-02    0.4717   -0.1861   -0.1466 -3.365e-02   -0.3067    3.1416    3.1416 -2.815e-21  4.190e-24    3.1416 -2.815e-21  110.0000 2
84  3.523e-03  2.566e-03  6.232e-03  2.396e-02  9.388e-03 -6.783e-03  2.030e-08  1.823e-08  8.962e-10  9.592e-10    0.4139  8.761e-02    0.4478    0.1906   -0.3937   -0.4106    3.1416    3.1416 -6.141e-24 -2.557e-20    3.1416 -6.141e-24  110.0000 2
85  5.631e-03 -6.565e-03 -6.272e-03  1.074e-02 -1.270e-03 -2.565e-03  2.228e-08  2.341e-08  8.318e-10  8.835e-10 -1.796e-02   -0.1027   -0.2372  8.490e-02    0.2398   -0.4028    3.1416    3.1416  1.667e-19 -6.957e-17    3.1416  1.667e-19  110.0000 2
86 -1.763e-02  4.226e-03 -3.231e-02 -1.041e-03 -2.859e-02  9.600e-03  1.884e-08  2.358e-08  9.417e-10  1.043e-09 -1.029e-02   -0.1289   -0.2283    0.1348    0.1989    0.2688    3.1416    3.1416  9.232e-20 -3.201e-20    3.1416  9.232e-20  110.0000 2
87  2.103e-02 -8.536e-03 -2.562e-02  1.730e-02 -2.394e-02 -4.334e-03  2.429e-08  1.641e-08  1.110e-09  1.009e-09    0.3561  6.891e-03   -0.3098 -2.862e-02    0.2261    0.8168    3.1416    3.1416 -1.774e-19  2.285e-23    3.1416 -1.774e-19  110.0000 2
88 -5.750e-03 -7.316e-03  3.463e-02 -1.123e-02  3.788e-02 -5.605e-03  2.112e-08  2.001e-08  9.778e-10  9.795e-10   -0.1592    0.1656    0.3798    0.3118    0.3562   -0.2015    3.1416    3.1416 -2.885e-23  1.322e-25    3.1416 -2.885e-23  110.0000 2
89 -8.058e-03 -1.148e-03  1.452e-02 -2.948e-02 -5.323e-03 -2.353e-02  2.125e-08  2.273e-08  1.103e-09  1.144e-09    0.1608   -0.4352   -0.1561    0.2781    0.2049 -1.325e-02    3.1416    3.1416 -5.115e-19  1.255e-23    3.1416 -5.115e-19  110.0000 2
90 -1.422e-02  4.684e-03  2.550e-02  4.933e-03 -1.121e-02 -2.299e-02  1.979e-08  1.997e-08  1.013e-09  9.421e-10  9.758e-02 -2.175e-03   -0.2250 -1.644e-02  8.873e-03   -0.3281    3.1416    3.1416 -9.071e-21 -1.599e-22    3.1416 -9.071e-21  110.0000 2
91  1.021e-02 -1.610e-02 -1.026e-02 -9.441e-03  2.512e-03 -6.243e-03  1.915e-08  2.412e-08  9.391e-10  1.042e-09   -0.3228   -0.1073    0.5186    0.2999 -9.505e-02    0.4427    3.1416    3.1416 -2.735e-16 -1.099e-22    3.1416 -2.735e-16  110.0000 2
92 -1.828e-02  3.104e-02  7.908e-03 -3.046e-03 -2.136e-02 -1.033e-02  2.447e-08  1.958e-08  1.010e-09  9.579e-10    0.8721  8.849e-02    0.3999   -0.5931    0.2489    0.5274    3.1416    3.1416 -5.764e-20  2.275e-24    3.1416 -5.764e-20  110.0000 2
93 -2.751e-03 -1.715e-03 -2.036e-02  1.079e-02  6.947e-03  3.739e-02  2.554e-08  2.087e-08  8.980e-10  1.092e-09   -0.2256 -2.373e-02    0.3296   -0.4910   -0.4708    0.3811    3.1416    3.1416 -1.001e-19 -2.595e-25    3.1416 -1.001e-19  110.0000 2
94 -1.202e-02  1.621e-02 -6.099e-03  9.707e-03  1.429e-02 -7.226e-03  2.404e-08  2.283e-08  9.553e-10  8.099e-10 -9.532e-02    0.3828    0.1878    0.2826  3.245e-02    0.3068    3.1416    3.1416  2.140e-17 -4.147e-25    3.1416  2.140e-17  110.0000 2
95  7.329e-03  3.056e-03 -1.128e-02 -5.332e-04  2.554e-02 -1.332e-02  1.884e-08  2.598e-08  1.133e-09  1.070e-09    0.4101    0.5726 -8.684e-02   -0.7177  4.464e-03   -0.2844    3.1416    3.1416  1.285e-20 -1.948e-21    3.1416  1.285e-20  110.0000 2
96 -3.755e-02  1.050e-02  1.520e-02 -2.516e-02  2.158e-02 -1.330e-03  2.458e-08  2.207e-08  9.092e-10  1.009e-09    0.6520  3.358e-02 -5.814e-02   -0.2998    0.6680 -2.630e-02    3.1416    3.1416 -4.030e-22  1.033e-23    3.1416 -4.030e-22  110.0000 2
97  1.239e-02  1.801e-02 -2.468e-03  6.361e-03 -1.586e-02 -1.120e-02  2.410e-08  2.171e-08  8.627e-10  1.152e-09    0.2584    0.3143   -0.6859    0.2242 -9.898e-02   -0.2873    3.1416    3.1416 -7.610e-20  6.952e-22    0.8983 -7.610e-20  110.0000 2
98  1.491e-03  3.049e-03 -3.327e-03  2.429e-03 -1.964e-02 -1.209e-02  2.227e-08  2.457e-08  1.007e-09  1.111e-09    0.2457    0.4774    0.6405    0.4764    0.5020    0.2811    3.1416    3.1416  7.386e-21 -4.785e-21    3.1416  7.386e-21  110.0000 2
99 -1.019e-02  7.775e-03  4.304e-03 -1.222e-02  2.235e-02 -9.509e-03  2.186e-08  2.175e-08  9.612e-10  1.012e-09   -0.1252    0.3574   -0.6030    0.1002  3.790e-03   -0.2240    3.1416    3.1416 -7.001e-22  2.119e-16    3.1416 -7.001e-22  110.0000 2
100 -2.950e-03 -8.719e-03  8.527e-03  2.228e-02  3.569e-02  4.315e-03  2.017e-08  1.940e-08  1.043e-09  1.019e-09    0.1457 -5.791e-02  1.610e-02  3.306e-02    0.4202    0.4722    3.1416    3.1416  4.418e-19 -3.367e-23    3.1416  4.418e-19  110.0000 2
101  3.106e-02 -1.804e-02  1.198e-02 -8.989e-04 -1.327e-02  1.391e-02  2.075e-08  1.899e-08  9.532e-10  1.041e-09   -0.4208    0.4561  4.747e-02   -0.7121    0.2559   -0.1276    3.1416    3.1416 -1.670e-20  3.710e-20    3.1416 -1.670e-20  110.0000 2
102  1.993e-02  8.676e-03 -2.104e-03 -9.816e-03  8.279e-03 -9.083e-03  2.369e-08  2.686e-08  1.055e-09  8.702e-10  4.399e-02    0.2061    0.2774 -1.266e-02   -0.2984  8.385e-02    3.1416    3.1416  1.943e-19    0.    3.1416  1.943e-19  110.0000 2
103  5.434e-03 -4.504e-04  1.401e-02  1.345e-03  2.185e-02 -4.712e-03  2.121e-08  2.297e-08  1.003e-09  8.959e-10   -0.5071 -8.852e-02 -2.478e-02   -0.2928    0.4840   -0.1850    3.1416    3.1416  1.935e-18  1.251e-20    3.1416  1.935e-18  110.0000 2
104 -2.687e-02 -2.250e-05 -1.252e-02 -4.555e-03 -2.249e-03 -6.332e-03  2.373e-08  2.208e-08  9.218e-10  1.171e-09   -0.5229 -2.148e-02   -0.3038  1.593e-02   -0.3339    0.1577    3.1416    3.1416  1.343e-19  8.463e-26    0.8272  1.343e-19  110.0000 2
105  4.702e-03 -1.435e-02  2.444e-02 -1.422e-02 -1.062e-02  1.573e-02  1.897e-08  2.122e-08  1.216e-09  1.099e-09   -0.5015   -0.7587    0.6797 -3.031e-02    0.2954   -0.3922    3.1416    3.1416  2.606e-20 -3.888e-25    3.1416  2.606e-20  110.0000 2
106  8.498e-04  1.074e-02 -4.342e-02  8.024e-04 -2.237e-02 -2.063e-02  2.154e-08  2.063e-08  1.084e-09  9.913e-10    0.4097    0.1354   -0.4118    0.3967   -0.2470    0.2063    3.1416    3.1416  1.322e-19  1.565e-24    3.1416  1.322e-19  110.0000 2
107  6.897e-05  2.391e-03  1.909e-02 -1.078e-02  1.509e-02 -1.714e-02  1.935e-08  2.242e-08  8.435e-10  1.122e-09    0.7075 -3.053e-02    0.3772    0.3987    0.1469   -0.3855    3.1416    3.1416 -1.191e-18 -6.517e-24    3.1416 -1.191e-18  110.0000 2
108  3.005e-03  1.933e-02  1.921e-02  2.071e-02  2.401e-03 -2.201e-02  2.159e-08  2.306e-08  9.397e-10  9.365e-10  9.784e-02   -0.4449 -5.856e-03  4.564e-02    0.2922    0.6202    3.1416    3.1416 -1.165e-20 -1.461e-20    3.1416 -1.165e-20  110.0000 2
109 -9.583e-03 -1.433e-02  2.341e-02  1.909e-02  1.868e-02  6.252e-03  2.470e-08  1.831e-08  8.037e-10  1.173e-09    0.1716 -9.899e-02    0.1361    0.6566    0.3705  2.153e-03    3.1416    3.1416 -5.025e-20 -9.688e-23    3.1416 -5.025e-20  110.0000 2
110 -7.953e-03  3.792e-03 -1.862e-03  2.079e-02 -8.228e-03  4.872e-03  2.136e-08  1.901e-08  9.368e-10  8.456e-10  5.380e-03  5.119e-02  2.573e-02   -0.1645 -4.594e-02    0.5218    3.1416    3.1416 -1.757e-22  2.117e-22    3.1416 -1.757e-22  110.0000 2
111  5.449e-03  2.467e-03  2.668e-02 -1.021e-02  1.368e-02 -2.174e-02  1.880e-08  2.093e-08  1.107e-09  9.830e-10    0.4342    0.2741   -0.1043    0.4791    0.1928    0.7555    3.1416    3.1416 -7.003e-22  1.307e-23    3.1416 -7.003e-22  110.0000 2
112  1.861e-02 -2.284e-02 -3.116e-02  1.700e-02  2.014e-02  9.738e-03  2.340e-08  2.185e-08  9.237e-10  1.289e-09   -0.2264  1.326e-02    0.6900  8.999e-02   -0.5289    0.2210    3.1416    3.1416  2.567e-19  5.309e-17    0.6807  2.567e-19  110.0000 2
113 -1.450e-02  4.726e-03 -2.059e-02 -6.096e-03 -1.166e-02 -6.877e-03  1.975e-08  2.082e-08  9.903e-10  8.742e-10    0.5433   -0.6487    0.1462  8.775e-02 -6.013e-03  4.875e-03    3.1416    3.1416  8.382e-18 -2.213e-20    3.1416  8.382e-18  110.0000 2
114 -1.504e-02 -2.544e-02 -7.233e-03  4.847e-03 -2.143e-03  1.131e-02  2.198e-08  1.937e-08  9.574e-10  9.608e-10    0.6592    0.6881    0.4655    0.2492   -0.4779   -0.3975    3.1416    3.1416 -4.330e-20 -1.107e-24    3.1416 -4.330e-20  110.0000 2
115  2.428e-02 -7.846e-03 -3.185e-03  2.988e-02 -3.618e-03  1.385e-02  1.899e-08  2.275e-08  1.090e-09  9.983e-10   -0.5583    0.4158 -4.655e-03 -3.452e-02   -0.8531    0.1384    3.1416    3.1416 -3.008e-22  1.956e-21    3.1416 -3.008e-22  110.0000 2
116 -1.921e-02  3.322e-02  1.029e-03 -1.239e-03 -1.419e-03  4.225e-03  2.041e-08  2.181e-08  1.055e-09  1.098e-09   -0.3881   -0.3665   -0.3017    0.4633   -0.1156  7.815e-02    3.1416    3.1416  7.008e-19 -6.285e-21    3.1416  7.008e-19  110.0000 2
117  1.554e-02  1.038e-02  6.159e-03  1.053e-03 -3.303e-02  2.421e-02  1.921e-08  2.090e-08  9.787e-10  1.089e-09    0.2177   -0.5774   -0.1737    0.3192   -0.5038  1.131e-02    3.1416    3.1416  1.165e-20 -3.962e-24    3.1416  1.165e-20  110.0000 2
118 -1.080e-02 -5.910e-03  2.366e-02  1.653e-02  2.598e-02  3.145e-02  2.420e-08  2.052e-08  8.797e-10  1.046e-09  7.895e-02   -0.1571 -7.295e-02   -0.3278    0.2374   -0.2546    3.1416    3.1416  5.315e-17 -4.753e-23    3.1416  5.315e-17  110.0000 2
119  9.293e-04 -1.211e-02 -2.175e-02  1.615e-03  2.256e-02 -4.526e-03  2.074e-08  1.839e-08  9.770e-10  1.184e-09  5.533e-02    0.2680   -0.3835   -0.3580   -0.3455   -0.3106    3.1416    3.1416 -6.047e-21 -4.636e-22    3.1416 -6.047e-21  110.0000 2
120  1.280e-02 -8.577e-03  3.004e-02  1.784e-02  4.230e-03  1.534e-02  2.313e-08  1.757e-08  8.984e-10  1.139e-09   -0.2041    0.3623   -0.4324  4.522e-02 -5.881e-02  1.243e-02    3.1416    3.1416 -3.455e-16 -2.723e-23    3.1416 -3.455e-16  110.0000 2
121  2.018e-02  1.162e-02  1.335e-02  2.632e-02  1.547e-02 -3.268e-02  1.958e-08  2.122e-08  9.933e-10  1.050e-09 -4.947e-02  6.639e-02   -0.2750   -0.2378   -0.4977    0.4976    3.1416    3.1416 -2.896e-16 -9.517e-22    3.1416 -2.896e-16  110.0000 2
122  2.057e-02 -2.855e-02  7.395e-03 -3.165e-03  1.704e-02  1.094e-02  2.326e-08  2.191e-08  1.040e-09  9.613e-10    0.3593    0.3496    1.5189    0.8060   -0.4136   -0.3434    3.1416    3.1416  1.220e-19 -4.037e-24    3.1416  1.220e-19  110.0000 2
123  1.243e-02 -2.679e-02 -9.781e-03 -3.537e-02 -4.356e-03  4.629e-02  1.880e-08  2.464e-08  9.100e-10  1.078e-09    0.3498    0.4222    0.1159  8.403e-02 -7.669e-02    0.2843    3.1416    3.1416 -2.401e-22  1.569e-23    3.1416 -2.401e-22  110.0000 2
124 -1.138e-02 -9.072e-03  5.003e-03  1.493e-03  2.029e-03  4.098e-02  2.121e-08  2.397e-08  1.066e-09  8.697e-10   -0.2952    0.4159    0.7369   -0.1148    0.1939    0.1587    3.1416    3.1416  8.503e-22  9.364e-25    3.1416  8.503e-22  110.0000 2
125 -9.385e-03 -9.630e-03  7.067e-03  6.509e-03  5.163e-03 -9.258e-03  2.078e-08  2.399e-08  9.234e-10  1.077e-09   -0.4791    0.3548  7.411e-02   -0.6120   -0.4742   -0.2095    3.1416    3.1416  1.792e-22  4.445e-20    3.1416  1.792e-22  110.0000 2
126 -1.226e-02 -1.478e-02 -9.929e-03  1.101e-02 -1.087e-02 -5.555e-03  2.526e-08  1.981e-08  9.748e-10  9.716e-10    0.4791  6.656e-02   -0.2821    0.1254   -0.3715 -2.056e-02    3.1416    3.1416 -4.356e-23  6.990e-25    3.1416 -4.356e-23  110.0000 2
127 -1.746e-02 -1.185e-02  5.570e-03 -2.644e-02  2.889e-02 -1.252e-02  1.860e-08  2.469e-08  1.192e-09  1.130e-09   -0.1220    0.3162  5.136e-03 -9.567e-02   -0.1316    0.2138    3.1416    3.1416  3.552e-21  3.266e-23    3.1416  3.552e-21  110.0000 2
128 -5.061e-02 -1.502e-02  3.074e-02 -5.778e-04  3.565e-03  1.541e-02  2.609e-08  2.215e-08  7.730e-10  1.088e-09  9.908e-02  7.130e-02   -0.3810    0.4266    0.5636   -0.1811    3.1416    3.1416  7.000e-20 -4.637e-22    0.7384  7.000e-20  110.0000 2
129  2.359e-02  6.802e-03  2.945e-03 -4.336e-03 -8.036e-03  2.082e-02  2.229e-08  2.126e-08  8.035e-10  1.007e-09    0.1901    0.7360  2.260e-02    0.3020 -3.398e-02   -0.1692    3.1416    3.1416 -1.829e-22 -6.069e-21    3.1416 -1.829e-22  110.0000 2
130 -1.869e-02 -1.350e-04 -1.663e-04 -1.904e-02  6.161e-03 -1.425e-02  1.855e-08  1.903e-08  8.572e-10  9.080e-10    0.6196  5.149e-02    0.2207 -7.556e-02    0.3527  8.657e-02    3.1416    3.1416  2.210e-20 -2.959e-23    3.1416  2.210e-20  110.0000 2
131 -2.613e-03 -2.536e-02 -1.884e-02 -1.206e-02 -2.639e-02 -4.723e-02  2.445e-08  1.868e-08  1.067e-09  1.057e-09    0.1522    0.1469   -0.2215   -0.3333    0.4312  4.216e-02    3.1416    3.1416 -7.115e-21 -2.574e-25    3.1416 -7.115e-21  110.0000 2
132  5.521e-03  4.127e-02 -1.852e-02 -9.117e-03  8.877e-03 -1.799e-03  2.447e-08  2.132e-08  1.205e-09  9.979e-10   -0.2391    0.4556   -0.9468   -0.5679   -0.1551  5.855e-02    0.8487    3.1416  1.488e-20    0.    3.1416  1.488e-20  110.0000 2
133  3.542e-02  1.399e-02  1.233e-02 -2.132e-02 -3.698e-03 -2.213e-02  1.968e-08  2.583e-08  9.818e-10  9.020e-10   -0.5017 -5.668e-02   -0.7213    0.1129 -2.670e-02  1.672e-02    3.1416    3.1416 -7.717e-20 -6.380e-23    3.1416 -7.717e-20  110.0000 2
134  3.800e-03  2.844e-02  2.034e-02 -6.213e-03  8.651e-03  6.981e-03  2.500e-08  1.824e-08  1.037e-09  1.052e-09   -0.2178    0.4368    0.1667   -0.1629    0.3314    0.7386    3.1416    3.1416  5.331e-21 -7.616e-25    3.1416  5.331e-21  110.0000 2
135  1.911e-02  7.803e-03  1.602e-02 -1.562e-02 -4.042e-04  1.376e-04  2.266e-08  1.887e-08  1.152e-09  1.138e-09    0.6181    0.4189 -2.794e-02    0.6518   -0.3844    0.2414    3.1416    3.1416  9.569e-17  7.499e-20    3.1416  9.569e-17  110.0000 2
136  1.979e-02  3.859e-03  2.994e-04 -6.427e-03 -3.379e-03 -2.673e-02  2.408e-08  1.655e-08  1.100e-09  1.267e-09  8.699e-02    0.2163 -9.462e-02   -0.7009   -0.2251  9.867e-02    3.1416    3.1416 -6.823e-19  2.634e-22    3.1416 -6.823e-19  110.0000 2
137  1.662e-02  2.840e-03 -1.153e-02 -1.419e-02  7.607e-03 -5.546e-03  2.273e-08  2.114e-08  1.181e-09  1.242e-09  4.074e-02   -0.4300    0.5112   -0.4838    0.3365   -0.3563    3.1416    3.1416  1.104e-19 -4.884e-23    3.1416  1.104e-19  110.0000 2
138  3.663e-02  7.869e-03  3.349e-02 -2.307e-03  3.866e-02  1.881e-02  2.235e-08  2.345e-08  1.002e-09  1.075e-09 -9.207e-02    0.4656    0.2062    0.1663    0.4571    0.2262    3.1416    3.1416  1.556e-19 -5.000e-21    3.1416  1.556e-19  110.0000 2
139  2.649e-03 -1.886e-02 -5.519e-03  3.586e-03  5.671e-03  9.026e-04  1.662e-08  2.216e-08  9.168e-10  1.041e-09  7.279e-02   -0.2092 -6.315e-02    0.2867   -0.3273   -0.2444    3.1416    3.1416  2.007e-22 -1.455e-17    3.1416  2.007e-22  110.0000 2
140 -3.612e-02 -7.448e-03 -9.595e-03  1.200e-02  1.657e-02 -6.460e-03  2.007e-08  2.137e-08  1.099e-09  1.065e-09 -5.684e-02   -0.2041   -0.1582   -0.2600 -2.342e-02    0.2154    3.1416    3.1416 -3.707e-20  2.238e-22    3.1416 -3.707e-20  110.0000 2
141 -1.221e-02  1.079e-02 -9.669e-03  7.342e-03  2.401e-02  1.987e-02  2.433e-08  2.106e-08  8.631e-10  1.134e-09  5.240e-02 -3.096e-02 -5.422e-02   -0.5580    0.4737   -0.3347    3.1416    3.1416 -2.464e-18  2.753e-20    0.8531 -2.464e-18  110.0000 2
142 -5.002e-03  3.302e-03 -8.461e-03  1.630e-02  1.759e-02  3.514e-02  1.848e-08  2.232e-08  1.144e-09  9.278e-10    0.6165   -0.4294    0.4426   -0.1453  3.483e-02   -0.2213    3.1416    3.1416 -1.033e-19  4.250e-24    3.1416 -1.033e-19  110.0000 2
143 -2.570e-02 -7.301e-03 -2.498e-03  4.172e-03 -8.874e-03  8.005e-03  2.369e-08  2.177e-08  9.710e-10  1.192e-09  7.007e-02   -0.4285  2.303e-02  2.454e-03    0.1447   -0.2681    3.1416    3.1416 -7.413e-22 -8.879e-23    0.8617 -7.413e-22  110.0000 2
144  5.846e-03  2.762e-02  1.520e-02 -9.654e-03  1.724e-02 -1.298e-02  2.035e-08  2.367e-08  8.120e-10  9.013e-10 -7.194e-02  5.111e-02    0.2002   -0.2368  4.183e-02   -0.3372    3.1416    3.1416  2.342e-21 -5.078e-22    3.1416  2.342e-21  110.0000 2
145 -5.231e-03 -5.303e-03 -5.491e-03  1.975e-02  1.040e-02  1.063e-02  2.241e-08  2.165e-08  1.012e-09  1.070e-09    0.5724    0.2557   -0.2304   -0.6581    0.2123   -0.2852    3.1416    3.1416  3.417e-17 -3.984e-24    3.1416  3.417e-17  110.0000 2
146  5.252e-03 -7.571e-03  1.565e-02 -3.320e-02  2.238e-02 -2.566e-02  2.325e-08  1.860e-08  1.097e-09  8.240e-10  8.597e-03    0.2748    0.5757    0.1521 -8.114e-02    0.2671    3.1416    3.1416 -4.285e-18  2.141e-23    3.1416 -4.285e-18  110.0000 2
147  8.790e-03  2.287e-02  4.975e-02  1.430e-02 -4.917e-03  1.290e-02  2.268e-08  2.624e-08  1.031e-09  9.718e-10   -0.1483   -0.6649    0.2004   -0.4013   -0.3031    0.3164    3.1416    3.1416 -6.745e-19 -5.510e-26    3.1416 -6.745e-19  110.0000 2
148 -1.073e-02 -1.439e-02  2.268e-02  1.486e-02 -1.324e-02 -2.057e-03  2.042e-08  2.148e-08  9.249e-10  8.426e-10    0.2627    0.6485 -6.116e-03    0.5503  1.425e-03 -8.888e-02    3.1416    3.1416  8.948e-18 -1.218e-19    3.1416  8.948e-18  110.0000 2
149  4.384e-02 -1.747e-03 -3.077e-02 -1.646e-03 -3.707e-03 -1.104e-02  2.353e-08  2.201e-08  1.005e-09  9.091e-10 -4.344e-02  8.085e-03  5.220e-02   -0.6089   -0.3816    0.1685    3.1416    3.1416  2.062e-19 -7.549e-27    3.1416  2.062e-19  110.0000 2
150 -1.796e-02  9.071e-03 -7.168e-03  4.843e-03  3.199e-02 -1.174e-03  2.357e-08  2.306e-08  9.647e-10  8.646e-10  9.366e-02 -7.829e-02   -0.2923   -0.1204   -0.1741   -0.2254    3.1416    3.1416 -3.384e-17  2.946e-24    3.1416 -3.384e-17  110.0000 2
151  5.589e-04  1.051e-02 -7.857e-03 -1.283e-03  4.622e-03 -1.118e-02  1.808e-08  2.489e-08  1.166e-09  1.060e-09   -0.4701    0.4671    0.2234  2.711e-02    0.4604    0.1567    3.1416    3.1416 -1.939e-21 -1.862e-23    3.1416 -1.939e-21  110.0000 2
152  6.949e-03 -2.387e-02  7.677e-03 -1.236e-02 -2.813e-03  1.849e-03  2.120e-08  2.052e-08  9.929e-10  1.058e-09    0.1891   -0.6356   -0.1017    0.2432   -0.5443   -0.2323    3.1416    3.1416 -1.525e-16 -4.116e-22    3.1416 -1.525e-16  110.0000 2
153 -1.615e-02 -8.421e-03  1.172e-02  1.594e-02  1.059e-02  2.430e-02  2.679e-08  2.165e-08  1.021e-09  1.052e-09    0.4227  4.836e-02   -0.2813   -0.3214    0.1658   -0.5303    3.1416    3.1416 -1.578e-20 -1.776e-27    3.1416 -1.578e-20  110.0000 2
154  2.785e-02  5.711e-03 -3.420e-02  3.589e-03  7.072e-03  4.029e-03  2.055e-08  2.040e-08  1.057e-09  9.942e-10  8.208e-03   -0.2309   -0.5509    0.1985    0.2361   -0.1412    3.1416    3.1416  1.125e-20 -1.404e-21    3.1416  1.125e-20  110.0000 2
155  6.517e-03 -7.883e-03  1.197e-02  3.199e-03  1.175e-02 -1.899e-02  2.497e-08  1.967e-08  9.834e-10  1.029e-09   -0.1399    0.2941   -0.1983 -4.970e-02    0.2804    0.1925    3.1416    3.1416  5.673e-18 -3.579e-21    3.1416  5.673e-18  110.0000 2
156 -1.697e-02 -1.231e-02 -1.124e-02 -1.441e-02 -3.040e-03 -4.314e-04  2.439e-08  2.046e-08  9.708e-10  9.215e-10   -0.1814    0.6802   -0.2868   -0.6092  2.681e-02   -0.1406    3.1416    3.1416  2.256e-19 -7.925e-23    3.1416  2.256e-19  110.0000 2
157 -1.587e-02  7.736e-03 -4.703e-03 -1.281e-02  9.707e-03  1.167e-02  2.510e-08  2.294e-08  1.006e-09  1.230e-09    0.4922 -3.590e-02 -9.660e-02    0.1938    0.8964   -0.1283    3.1416    3.1416 -2.576e-20 -3.356e-24    0.6860 -2.576e-20  110.0000 2
158 -2.730e-03  2.323e-03 -2.200e-02 -1.136e-03  4.617e-03  2.545e-02  2.295e-08  2.052e-08  9.917e-10  1.206e-09  3.170e-02    0.2950   -0.4537   -0.7474    0.3310    0.5031    3.1416    3.1416  4.913e-20 -3.513e-22    3.1416  4.913e-20  110.0000 2
159 -1.521e-02 -2.078e-04  1.612e-02  7.549e-03  5.116e-03 -5.561e-03  2.245e-08  2.291e-08  1.059e-09  9.628e-10  8.948e-02   -0.2153    0.2791    0.2219    0.2262    0.2423    3.1416    3.1416  1.552e-19  7.539e-25    3.1416  1.552e-19  110.0000 2
160 -8.158e-03  2.240e-03 -6.804e-03 -2.001e-02  4.022e-03 -1.371e-02  2.150e-08  2.260e-08  1.079e-09  1.045e-09   -0.1577 -5.091e-03   -0.6220   -0.1314    0.1971  7.489e-02    3.1416    3.1416  5.503e-20 -2.658e-23    3.1416  5.503e-20  110.0000 2
161 -1.801e-02  2.148e-02  5.403e-04 -2.124e-02  1.433e-02 -1.197e-02  2.489e-08  2.579e-08  1.135e-09  9.605e-10   -0.3598    0.1105 -6.982e-02    0.4033   -0.1185    0.1507    0.8100    3.1416 -3.584e-21    0.    3.1416 -3.584e-21  110.0000 2
162 -8.125e-03 -6.851e-03 -1.119e-02  3.742e-02  7.359e-03  3.125e-05  2.237e-08  1.901e-08  9.935e-10  9.945e-10   -0.4533    0.6783   -0.3610    0.1570   -0.2397   -0.1939    3.1416    3.1416 -1.187e-20 -6.852e-23    3.1416 -1.187e-20  110.0000 2
163 -6.722e-03 -2.591e-02 -3.705e-02 -1.062e-02 -3.690e-02 -1.388e-02  2.571e-08  1.793e-08  1.165e-09  9.147e-10   -0.1914   -0.3222    0.3669    0.1194    0.4410   -0.1889    3.1416    3.1416  4.692e-19    0.    3.1416  4.692e-19  110.0000 2
164  1.815e-02  1.861e-02 -2.732e-02  1.664e-02  2.158e-02 -1.946e-02  2.201e-08  2.154e-08  1.019e-09  8.540e-10    0.3232    0.1259    0.1464   -0.6495    0.2048   -0.5641    3.1416    3.1416 -1.732e-21 -2.016e-21    3.1416 -1.732e-21  110.0000 2
165 -2.594e-02  1.176e-02 -1.496e-02  3.597e-03 -1.200e-02  1.727e-02  2.356e-08  2.140e-08  1.090e-09  1.122e-09   -0.1889   -0.6543   -0.1692  3.735e-02    0.2329   -0.3321    3.1416    3.1416 -9.115e-21 -1.589e-28    3.1416 -9.115e-21  110.0000 2
166 -2.446e-02 -7.385e-03 -6.837e-03  1.865e-02  1.520e-02  4.066e-03  1.832e-08  2.340e-08  8.107e-10  9.110e-10    0.9491   -0.2405    0.1709   -0.2262  7.319e-02 -4.695e-02    3.1416    3.1416  4.452e-17 -2.274e-21    3.1416  4.452e-17  110.0000 2
167  2.076e-04 -9.892e-03 -2.571e-02 -8.761e-03 -1.502e-03  9.620e-03  2.055e-08  2.132e-08  9.981e-10  1.052e-09    0.2155 -6.582e-03   -0.2130    0.1512   -0.7741    0.2878    3.1416    3.1416  7.430e-17  1.758e-23    3.1416  7.430e-17  110.0000 2
168  3.810e-03 -3.277e-03 -2.455e-02 -2.288e-03  1.341e-02 -2.037e-02  1.981e-08  2.103e-08  1.070e-09  8.936e-10    0.1524 -9.917e-03    0.2432   -0.2359    0.5027    0.4471    3.1416    3.1416 -3.038e-18 -9.386e-25    3.1416 -3.038e-18  110.0000 2
169  2.835e-02 -4.011e-03  5.062e-03 -1.687e-03  5.536e-03  2.293e-02  2.081e-08  2.198e-08  1.032e-09  1.096e-09   -0.1445   -0.1979    0.2301    0.2283    0.5160    0.5353    3.1416    3.1416  2.231e-20 -1.183e-20    3.1416  2.231e-20  110.0000 2
170 -5.392e-02 -2.605e-02  9.070e-03  1.982e-04  1.153e-02  4.314e-03  2.220e-08  2.128e-08  1.039e-09  8.992e-10   -0.5670   -0.2118   -0.7624   -0.2038    0.1673    0.3238    3.1416    3.1416  4.741e-18 -2.023e-25    3.1416  4.741e-18  110.0000 2
171 -5.551e-03  2.374e-02 -1.692e-02  4.644e-03  2.486e-02  1.619e-02  2.431e-08  2.234e-08  1.033e-09  8.445e-10    0.1851   -0.2946   -0.2511   -0.7979   -0.1627   -0.4087    3.1416    3.1416  8.079e-21  1.246e-21    3.1416  8.079e-21  110.0000 2
172  1.755e-02 -1.703e-02  4.408e-02 -2.273e-03  1.653e-03 -1.972e-02  2.097e-08  2.268e-08  1.142e-09  1.047e-09    0.2856    0.3972  5.856e-02  6.570e-03    0.2742 -9.305e-02    3.1416    3.1416 -2.532e-21 -4.116e-25    3.1416 -2.532e-21  110.0000 2
173 -2.141e-02 -4.112e-02  6.407e-03 -2.032e-02 -1.068e-02 -1.055e-02  2.074e-08  2.083e-08  1.191e-09  1.166e-09   -0.5604  8.284e-02    0.2249    0.4063   -0.4154   -0.1108    3.1416    3.1416  2.311e-19  3.652e-23    3.1416  2.311e-19  110.0000 2
174  7.499e-03 -5.420e-04  8.165e-03  2.977e-03 -1.952e-02  1.717e-02  1.926e-08  1.890e-08  9.497e-10  1.107e-09 -8.581e-02    0.2549   -0.3291    0.1299   -0.5297   -0.3312    3.1416    3.1416  3.007e-18 -1.612e-23    3.1416  3.007e-18  110.0000 2
175  7.049e-03  5.358e-03  3.377e-02  3.309e-02 -1.099e-02  4.202e-03  2.149e-08  2.402e-08  9.979e-10  8.873e-10 -1.133e-02 -3.995e-02    0.3476   -0.1250    0.3774    0.4324    3.1416    3.1416 -1.894e-22 -1.358e-21    3.1416 -1.894e-22  110.0000 2
176  2.792e-03  1.677e-03 -5.536e-03 -1.754e-02 -6.679e-04  9.806e-03  2.005e-08  2.554e-08  8.947e-10  9.931e-10    0.7168    0.3188    0.5179    0.1899    0.1931    0.1953    3.1416    3.1416 -2.148e-16 -2.698e-21    3.1416 -2.148e-16  110.0000 2
177  5.941e-03 -2.243e-02 -1.138e-02  1.179e-02 -1.944e-02  7.918e-03  2.291e-08  2.376e-08  1.140e-09  1.140e-09   -0.1325   -0.2115  8.739e-02 -4.479e-03  3.578e-02   -0.2341    3.1416    3.1416 -6.850e-21  2.928e-27    3.1416 -6.850e-21  110.0000 2
178  4.314e-03  1.337e-02 -1.355e-02  6.947e-03  2.969e-02 -1.492e-02  1.680e-08  2.588e-08  9.937e-10  1.111e-09   -0.3265  8.543e-02 -7.642e-03    0.4554  7.489e-02   -0.3489    3.1416    3.1416  4.694e-24  2.477e-16    3.1416  4.694e-24  110.0000 2
179  2.596e-03 -4.064e-02  4.085e-02  8.591e-03  4.153e-02 -1.489e-02  2.504e-08  1.794e-08  9.489e-10  9.941e-10  7.272e-03   -0.3734    0.5414   -0.1061   -0.7235   -0.2585    3.1416    3.1416  3.412e-21  5.378e-23    3.1416  3.412e-21  110.0000 2
180  2.203e-03  2.958e-02 -1.402e-02  5.768e-04 -6.868e-03  6.311e-03  2.263e-08  2.265e-08  9.663e-10  1.157e-09   -0.2471   -0.3188 -4.666e-02   -0.2205    0.4476    0.1700    3.1416    3.1416 -1.936e-15 -1.227e-19    3.1416 -1.936e-15  110.0000 2
181 -1.013e-02  1.827e-02  3.988e-02 -1.285e-02 -1.923e-03  3.442e-02  2.117e-08  1.890e-08  1.093e-09  1.186e-09 -4.050e-02 -5.222e-03    0.4023    0.5768    0.3167   -0.2792    3.1416    3.1416  2.591e-21  6.491e-22    3.1416  2.591e-21  110.0000 2
182  1.633e-03 -2.921e-02  1.074e-02  1.405e-02  1.034e-02  8.876e-03  2.163e-08  2.832e-08  1.059e-09  1.105e-09   -0.2203    0.1193   -0.1463 -2.203e-02    0.6380   -0.1099    3.1416    3.1416 -2.150e-19 -4.077e-20    0.6639 -2.150e-19  110.0000 2
183 -4.081e-03  5.938e-03 -8.364e-03 -4.830e-03  1.492e-02 -6.857e-03  2.153e-08  2.117e-08  1.012e-09  1.094e-09 -8.215e-02    0.5010    0.2360 -8.555e-02    0.2680   -0.7434    3.1416    3.1416 -9.275e-20  1.005e-22    3.1416 -9.275e-20  110.0000 2
184  1.040e-02  2.194e-02 -1.019e-02 -6.121e-02 -4.104e-03  5.435e-03  2.401e-08  2.201e-08  1.238e-09  1.225e-09   -0.3028   -0.1290   -0.2099    0.2884   -0.1473   -0.3073    0.8865    3.1416 -9.509e-21  2.480e-21    0.9254 -9.509e-21  110.0000 2
185  1.323e-02  2.446e-03  4.267e-03 -1.857e-02  1.590e-03  2.626e-02  2.417e-08  2.615e-08  9.366e-10  1.150e-09 -5.673e-02    0.3269    0.5969    0.2223   -0.3083  6.199e-02    3.1416    3.1416  3.132e-20  6.300e-22    0.6476  3.132e-20  110.0000 2
186  3.498e-02  1.090e-02 -1.207e-02 -3.845e-02 -1.131e-03 -8.820e-04  2.604e-08  2.332e-08  9.940e-10  1.053e-09    0.1065   -0.2421    0.4402    0.3065   -0.5191 -2.003e-02    3.1416    3.1416 -2.515e-21    0.    3.1416 -2.515e-21  110.0000 2
187 -3.595e-03 -1.417e-02  2.236e-02  1.001e-02  2.549e-03  6.157e-04  2.418e-08  1.983e-08  9.862e-10  1.173e-09   -0.2915  5.176e-02    0.2054    0.3637   -0.5806   -0.3317    3.1416    3.1416 -2.039e-20 -9.523e-20    3.1416 -2.039e-20  110.0000 2
188 -1.125e-02  2.284e-02  1.251e-02 -2.311e-02  2.563e-02  7.193e-03  1.910e-08  2.363e-08  9.303e-10  8.722e-10   -0.7542    0.1413   -0.4965    0.1353  6.903e-02   -0.5171    3.1416    3.1416 -7.008e-16 -9.120e-20    3.1416 -7.008e-16  110.0000 2
189  4.637e-04  9.794e-03  6.292e-02  3.032e-02  1.138e-02 -6.108e-03  2.040e-08  2.213e-08  8.934e-10  1.147e-09   -0.2724 -9.864e-02    0.2957   -0.2271    0.3152   -0.4457    3.1416    3.1416  4.764e-19 -1.963e-22    3.1416  4.764e-19  110.0000 2
190 -2.742e-02 -1.080e-03  2.801e-02 -2.085e-02 -2.409e-03 -3.855e-04  2.432e-08  2.180e-08  1.108e-09  1.105e-09 -5.899e-02    0.1992    0.2270   -0.1630    0.2636   -0.1990    3.1416    3.1416 -6.884e-18  2.401e-24    3.1416 -6.884e-18  110.0000 2
191  7.634e-03 -2.648e-02 -1.282e-02 -4.367e-03 -3.151e-02 -1.751e-02  2.059e-08  2.141e-08  9.449e-10  1.088e-09   -0.4353 -3.233e-02   -0.4547    0.4262    0.3514    0.4020    3.1416    3.1416 -3.460e-18 -1.196e-16    3.1416 -3.460e-18  110.0000 2
192  2.052e-02  2.141e-02  2.411e-04  1.340e-02 -4.490e-03  1.144e-02  2.121e-08  2.443e-08  8.977e-10  1.050e-09   -0.1823 -6.320e-02   -0.4433    0.4475    0.1732   -0.2870    3.1416    3.1416  3.409e-18  4.069e-21    3.1416  3.409e-18  110.0000 2
193  1.354e-02 -5.231e-03 -1.940e-02  1.261e-02  2.901e-02 -9.411e-03  2.122e-08  2.551e-08  9.144e-10  9.332e-10    0.4342   -0.1136    0.4848    0.4088    0.3635   -0.3025    3.1416    3.1416  1.152e-20  7.092e-24    3.1416  1.152e-20  110.0000 2
194  7.227e-03  3.138e-02 -2.365e-02 -7.788e-03 -1.135e-02 -1.696e-02  2.221e-08  2.324e-08  8.477e-10  1.051e-09 -3.989e-02    0.5680 -6.406e-02    0.1094   -0.5757   -0.5407    3.1416    3.1416 -5.371e-21  3.122e-25    3.1416 -5.371e-21  110.0000 2
195  1.653e-02 -5.007e-03  7.774e-03 -2.266e-02 -2.034e-02  7.347e-03  2.374e-08  2.323e-08  9.372e-10  1.218e-09  9.790e-03    0.2103    0.2293    0.4882   -0.4127  3.240e-03    3.1416    3.1416  2.148e-20  1.356e-25    0.7277  2.148e-20  110.0000 2
196  1.200e-02  1.623e-02  2.168e-02  1.761e-02  1.489e-03 -1.392e-02  2.520e-08  2.340e-08  1.002e-09  8.280e-10   -0.3158 -8.969e-05  5.555e-02   -0.4022   -0.5156  6.394e-02    3.1416    3.1416 -3.902e-21 -9.235e-28    3.1416 -3.902e-21  110.0000 2
197 -2.107e-02  1.193e-02  1.513e-02 -2.440e-02 -6.645e-03  4.837e-03  2.030e-08  2.733e-08  1.027e-09  1.016e-09    0.2985   -0.1883  9.503e-03   -0.4313   -0.2760    0.4521    3.1416    3.1416 -4.907e-22  9.534e-22    3.1416 -4.907e-22  110.0000 2
198  9.857e-03 -1.109e-02  3.215e-04 -1.782e-02 -2.968e-02  1.430e-02  2.144e-08  1.944e-08  8.309e-10  9.048e-10  9.494e-03   -0.1917   -0.3735    0.2672   -0.2529 -3.274e-03    3.1416    3.1416  1.280e-21  2.383e-20    3.1416  1.280e-21  110.0000 2
199 -1.945e-03  1.942e-02 -3.540e-02 -4.123e-03 -1.123e-02  1.205e-02  2.399e-08  2.258e-08  9.154e-10  9.949e-10    0.1244   -0.2576   -0.1641    0.9371 -9.724e-02  3.743e-02    3.1416    3.1416  1.331e-21 -5.607e-23    3.1416  1.331e-21  110.0000 2
200 -2.573e-02  3.693e-03 -1.836e-03  1.077e-02 -2.528e-02 -2.743e-02  2.434e-08  2.456e-08  9.594e-10  9.278e-10  8.131e-02   -0.1375   -0.1919  6.404e-02   -0.1150    0.2381    3.1416    3.1416  5.467e-19 -1.069e-22    3.1416  5.467e-19  110.0000 2
201  1.510e-02  1.638e-02  1.274e-02 -3.203e-03  2.169e-02  4.763e-03  2.629e-08  2.078e-08  9.700e-10  9.366e-10    0.5230    0.1999   -0.5116    0.2578   -0.4760   -0.3393    3.1416    3.1416  2.793e-16 -2.896e-25    3.1416  2.793e-16  110.0000 2
202  1.759e-02 -2.875e-02  6.762e-03  3.719e-03 -3.333e-03 -1.911e-03  1.856e-08  2.425e-08  9.024e-10  1.029e-09 -4.651e-02   -0.2244   -0.6592    0.1450  5.756e-02  5.986e-02    3.1416    3.1416  8.200e-21  1.928e-22    3.1416  8.200e-21  110.0000 2
203  8.306e-04  1.937e-02 -1.577e-02  7.245e-04 -1.537e-02 -1.415e-02  2.103e-08  2.364e-08  9.360e-10  1.034e-09   -0.3140    0.3347   -0.3534    0.2502   -0.5399    0.3281    3.1416    3.1416 -3.568e-21  1.877e-21    3.1416 -3.568e-21  110.0000 2
204  4.556e-03 -3.188e-02  1.628e-02  1.326e-02 -3.846e-03  4.059e-04  2.066e-08  1.768e-08  1.010e-09  1.063e-09    0.1395    0.1244    0.3480   -0.6884    0.2912   -0.8781    3.1416    3.1416 -5.782e-20 -2.972e-24    3.1416 -5.782e-20  110.0000 2
205 -3.579e-03 -1.649e-02  2.609e-03 -1.391e-02  2.509e-02  2.390e-02  2.249e-08  1.763e-08  9.353e-10  1.151e-09    0.4582   -0.1674    0.2741   -0.2204    0.1654  5.373e-02    3.1416    3.1416  1.481e-21  2.424e-21    3.1416  1.481e-21  110.0000 2
206  2.108e-02 -3.706e-03  2.290e-03 -3.165e-02 -2.467e-02  2.958e-03  1.993e-08  2.382e-08  9.506e-10  1.098e-09 -9.324e-02    0.2702   -0.3654   -0.3860   -0.1531  5.260e-02    3.1416    3.1416  6.954e-21 -2.722e-22    3.1416  6.954e-21  110.0000 2
207 -1.156e-02 -1.480e-02 -1.516e-02 -1.526e-02 -1.067e-02 -3.088e-02  2.308e-08  2.066e-08  7.905e-10  1.131e-09   -0.1488   -0.1113  5.538e-02    0.4483  2.533e-02   -0.2299    3.1416    3.1416 -4.974e-21 -3.357e-23    3.1416 -4.974e-21  110.0000 2
208 -3.801e-02 -6.589e-03  1.057e-03 -2.308e-02 -2.188e-02  1.394e-02  1.890e-08  1.990e-08  1.061e-09  9.504e-10  6.066e-02    0.5660  8.139e-02    0.2390  6.954e-02   -0.5450    3.1416    3.1416  7.850e-21 -4.912e-24    3.1416  7.850e-21  110.0000 2
209 -2.526e-02 -1.532e-04  2.419e-02  3.317e-03 -2.397e-02  1.906e-03  2.106e-08  2.397e-08  1.179e-09  9.333e-10   -0.3944    0.2885   -0.4384    0.2427 -8.589e-02    0.2805    3.1416    3.1416 -4.322e-20    0.    3.1416 -4.322e-20  110.0000 2
210 -1.674e-03 -8.994e-03  8.103e-03 -2.702e-03  4.063e-03  2.368e-03  2.313e-08  2.127e-08  1.019e-09  1.095e-09 -4.422e-02    0.4311   -0.2923  4.498e-02   -0.2382 -7.363e-02    3.1416    3.1416  4.329e-20 -2.184e-23    3.1416  4.329e-20  110.0000 2
211  2.540e-02 -7.783e-03 -2.941e-02  7.173e-03  1.541e-02 -3.650e-03  2.132e-08  2.002e-08  1.243e-09  9.275e-10   -0.1025   -0.3807   -0.5701   -0.3824 -4.258e-02   -0.2655    3.1416    3.1416  5.696e-19    0.    3.1416  5.696e-19  110.0000 2
212  1.206e-02  1.143e-02  4.929e-03 -2.434e-03  1.149e-02  5.007e-03  2.588e-08  1.897e-08  1.073e-09  1.028e-09    0.2268    0.3311   -0.1912   -0.4974   -0.1889  2.224e-02    3.1416    3.1416 -9.619e-21  1.029e-26    3.1416 -9.619e-21  110.0000 2
213  3.110e-04  5.260e-04  2.939e-02  2.052e-02 -2.424e-02  1.297e-02  2.084e-08  1.509e-08  9.636e-10  9.856e-10    0.3496  7.537e-02   -0.2919 -2.255e-02    0.3378   -0.1490    3.1416    3.1416  1.442e-19  3.264e-21    3.1416  1.442e-19  110.0000 2
214  3.292e-03  3.688e-02 -1.138e-02 -1.405e-03  1.108e-02 -2.169e-02  2.172e-08  2.318e-08  1.194e-09  9.649e-10    0.1493    0.1134    0.2534   -0.1605   -0.1009    0.3565    3.1416    3.1416 -1.227e-18  9.149e-26    3.1416 -1.227e-18  110.0000 2
215 -3.598e-02  3.919e-02 -1.158e-02 -1.749e-02 -2.653e-02  4.188e-03  2.395e-08  2.095e-08  1.334e-09  1.089e-09    0.1358    0.3508    0.5018 -9.413e-02    0.2267    0.1976    0.7139    3.1416 -9.395e-21    0.    3.1416 -9.395e-21  110.0000 2
216  1.521e-02 -2.303e-02 -1.157e-02  2.504e-02 -1.597e-02 -1.598e-02  2.162e-08  2.008e-08  8.638e-10  1.098e-09  3.863e-02   -0.2899    0.1254    0.3188  2.741e-02   -0.4518    3.1416    3.1416 -8.166e-19 -6.048e-24    3.1416 -8.166e-19  110.0000 2
217 -8.320e-03 -2.643e-02 -2.222e-02  1.111e-02 -1.530e-03  9.560e-03  2.609e-08  2.180e-08  9.370e-10  1.016e-09    0.5756    0.2593   -0.3944   -0.4940   -0.3146    0.1379    3.1416    3.1416  1.642e-19 -8.669e-21    3.1416  1.642e-19  110.0000 2
218  1.786e-02  1.140e-02 -1.918e-02 -1.732e-02  7.183e-03 -2.380e-02  2.338e-08  2.234e-08  1.034e-09  7.475e-10  7.794e-02  9.185e-02 -6.686e-02 -5.320e-02    0.1056 -3.211e-02    3.1416    3.1416  3.958e-17  1.230e-20    3.1416  3.958e-17  110.0000 2
219  1.496e-02  1.433e-02 -4.355e-03  1.221e-02 -2.282e-02 -2.060e-02  2.116e-08  2.311e-08  1.022e-09  1.064e-09    0.1446    0.4296    0.2630   -0.3532    0.5971   -0.2694    3.1416    3.1416  2.372e-23 -2.561e-19    3.1416  2.372e-23  110.0000 2
220  3.867e-03 -2.559e-02  3.572e-03 -1.483e-02 -6.555e-03  3.503e-03  2.282e-08  1.967e-08  1.026e-09  1.004e-09 -4.342e-02   -0.1979    0.2439    0.1887    0.2475    0.1392    3.1416    3.1416  1.344e-19  5.989e-22    3.1416  1.344e-19  110.0000 2
221 -1.701e-02 -1.093e-02 -9.838e-03 -1.239e-03 -1.138e-02  7.738e-04  1.863e-08  2.625e-08  1.112e-09  1.169e-09  1.681e-02   -0.1270    0.1695 -6.577e-02   -0.2942    0.1340    3.1416    3.1416 -1.341e-19 -1.737e-24    0.8202 -1.341e-19  110.0000 2
222  4.868e-03 -2.698e-03  8.784e-03  1.317e-02 -4.816e-03  1.089e-02  2.107e-08  2.006e-08  1.001e-09  8.835e-10   -0.1572   -0.4444 -6.781e-02   -0.4321   -0.3220   -0.1489    3.1416    3.1416  1.330e-21 -1.684e-23    3.1416  1.330e-21  110.0000 2
223  1.233e-02  1.045e-02 -3.507e-02 -4.743e-04 -9.303e-03 -1.501e-02  2.504e-08  2.133e-08  1.021e-09  1.045e-09    0.1085   -0.1158    0.1153    0.1605    0.1971    0.1306    3.1416    3.1416  1.762e-21  1.218e-25    3.1416  1.762e-21  110.0000 2
224 -1.326e-02 -1.650e-02  8.668e-04  1.481e-03 -1.034e-02 -4.204e-03  2.542e-08  1.951e-08  8.820e-10  9.355e-10    0.1917  6.090e-02   -0.5538    0.1813  8.767e-02   -0.2038    3.1416    3.1416  4.424e-19 -2.488e-23    3.1416  4.424e-19  110.0000 2
225 -1.488e-02  3.500e-02  1.503e-02  1.714e-02  1.894e-02  1.272e-02  1.986e-08  2.369e-08  8.263e-10  1.159e-09    0.2283   -0.9929   -0.3583    0.1241    0.3727  1.958e-02    3.1416    3.1416 -2.928e-21  3.128e-17    0.8108 -2.928e-21  110.0000 2
226  1.378e-02 -1.404e-02 -3.495e-02 -2.078e-02  1.458e-03 -9.683e-03  2.228e-08  1.912e-08  9.172e-10  1.170e-09    0.4956   -0.3539    0.4830   -0.1229  3.434e-02    0.1551    3.1416    3.1416 -1.029e-20 -2.622e-22    3.1416 -1.029e-20  110.0000 2
227 -1.068e-02  3.407e-02  5.622e-03  6.694e-04 -2.959e-02 -4.000e-03  2.400e-08  2.563e-08  9.837e-10  8.547e-10    0.1695 -8.396e-02  4.715e-02    0.1439   -0.3860    0.1909    3.1416    3.1416  1.723e-21  1.058e-24    3.1416  1.723e-21  110.0000 2
228  1.047e-02 -1.068e-02  4.975e-03  1.693e-03 -3.091e-03 -9.761e-03  2.179e-08  2.486e-08  9.883e-10  9.346e-10   -0.1400 -8.643e-02   -0.4864 -6.996e-02  7.634e-02  2.297e-02    3.1416    3.1416  8.970e-20 -4.544e-20    3.1416  8.970e-20  110.0000 2
229  1.390e-02  3.932e-03 -3.216e-02  4.927e-03 -6.681e-03 -2.270e-03  2.154e-08  2.317e-08  9.940e-10  9.237e-10   -0.3597   -0.2896    0.1927    0.1037  8.737e-02    0.1774    3.1416    3.1416  1.122e-17  5.290e-17    3.1416  1.122e-17  110.0000 2
230  2.471e-02  7.987e-03  1.559e-02  8.550e-03 -1.723e-02  7.816e-03  1.925e-08  2.189e-08  9.941e-10  9.800e-10   -0.7870    0.1972    0.3932   -0.1985 -6.742e-03    0.2283    3.1416    3.1416  1.809e-19 -1.365e-18    3.1416  1.809e-19  110.0000 2
231 -7.791e-03  3.720e-02 -1.388e-02 -1.507e-02  3.511e-02  1.257e-02  2.601e-08  2.328e-08  1.131e-09  9.958e-10   -0.2436 -2.377e-02   -0.8834    0.4225   -0.3952    0.1597    0.7954    3.1416  3.898e-18    0.    3.1416  3.898e-18  110.0000 2
232 -1.111e-02  1.289e-02 -2.036e-02 -9.659e-03 -5.232e-03  2.684e-02  2.212e-08  2.455e-08  9.887e-10  9.906e-10    0.2652   -0.1103    0.3801    0.1339    0.4764  3.926e-02    3.1416    3.1416 -2.677e-21  2.762e-24    3.1416 -2.677e-21  110.0000 2
233 -1.215e-03 -1.931e-02  7.028e-03 -3.256e-02 -1.668e-02 -5.007e-03  2.114e-08  1.707e-08  1.189e-09  1.165e-09    0.1908    0.5421    0.6054  5.007e-02    0.2296  8.012e-02    3.1416    3.1416  9.043e-22 -2.339e-26    3.1416  9.043e-22  110.0000 2
234 -1.057e-02 -3.059e-02  1.883e-02  2.689e-03 -1.129e-02 -1.051e-03  1.854e-08  2.479e-08  8.996e-10  9.291e-10   -0.3333   -0.4954   -0.4322   -0.3455   -0.3733   -0.3944    3.1416    3.1416 -2.272e-21 -1.897e-22    3.1416 -2.272e-21  110.0000 2
235  8.447e-03 -1.065e-02  1.577e-02 -4.117e-02  5.277e-03  1.748e-02  1.973e-08  2.523e-08  8.932e-10  9.892e-10   -0.2142   -0.1757   -0.3639   -0.3226  5.906e-02   -0.4322    3.1416    3.1416  4.526e-22 -4.359e-17    3.1416  4.526e-22  110.0000 2
236  6.319e-03  1.331e-02  4.519e-03 -2.544e-02  2.017e-02 -1.338e-03  2.449e-08  2.010e-08  1.103e-09  1.077e-09   -0.1821    0.2884    0.4851   -0.1552   -0.4011    0.1205    3.1416    3.1416  1.761e-19  6.662e-26    3.1416  1.761e-19  110.0000 2
237 -1.211e-02  1.192e-02  3.847e-03 -8.489e-03  3.331e-03  5.640e-03  2.141e-08  2.341e-08  8.276e-10  9.047e-10   -0.4088   -0.1822    0.4629    0.1423 -4.303e-02   -0.1914    3.1416    3.1416  2.801e-21 -2.721e-23    3.1416  2.801e-21  110.0000 2
238  2.940e-02  6.211e-03  2.044e-03  5.560e-04  1.108e-02 -2.496e-02  2.036e-08  2.355e-08  1.040e-09  1.088e-09    0.1663   -0.1849   -0.2758    0.7123    0.7490   -0.4125    3.1416    3.1416 -1.902e-21  3.368e-23    3.1416 -1.902e-21  110.0000 2
239 -1.888e-02 -9.356e-03 -3.142e-02 -2.621e-02 -4.916e-03  2.200e-02  2.300e-08  1.988e-08  1.035e-09  9.543e-10   -0.6203   -0.2167    0.3394   -0.2177    0.4559    0.1795    3.1416    3.1416 -2.081e-22 -6.109e-24    3.1416 -2.081e-22  110.0000 2
240 -5.590e-04 -7.298e-03  2.754e-03  6.467e-03 -1.736e-03 -2.323e-02  1.842e-08  2.002e-08  1.091e-09  1.102e-09   -0.2426   -0.2366  3.530e-02    0.5306 -5.361e-02  7.587e-02    3.1416    3.1416  1.840e-20  5.844e-21    3.1416  1.840e-20  110.0000 2
241 -1.614e-03  3.828e-02  1.684e-04 -2.092e-03  2.971e-02 -5.362e-03  2.296e-08  2.151e-08  8.110e-10  1.091e-09   -0.5804    0.3876  2.682e-02   -0.6447    0.1610    0.2845    3.1416    3.1416  6.528e-17 -2.885e-22    3.1416  6.528e-17  110.0000 2
242 -3.573e-03  1.489e-02  1.462e-02  2.459e-04 -1.206e-02  1.417e-03  2.294e-08  2.299e-08  9.832e-10  1.124e-09    0.2976  2.252e-02    0.1311   -0.2864   -0.2816   -0.4492    3.1416    3.1416  2.423e-19  8.114e-27    3.1416  2.423e-19  110.0000 2
243  4.539e-03 -3.592e-04  5.004e-03  2.680e-03  1.174e-02 -5.090e-04  2.645e-08  2.104e-08  1.152e-09  1.162e-09  7.621e-02   -0.1553 -3.559e-02   -0.5261    0.4534    0.2400    0.9175    3.1416 -1.290e-18 -1.122e-21    3.1416 -1.290e-18  110.0000 2
244 -1.424e-02  3.477e-02 -1.765e-02  1.779e-02 -2.857e-03  8.474e-04  2.126e-08  1.814e-08  9.591e-10  1.101e-09 -8.859e-02    0.1831    0.3140   -0.3085   -0.3456    0.1381    3.1416    3.1416  5.116e-20  3.064e-22    3.1416  5.116e-20  110.0000 2
245 -2.726e-03  5.082e-02  8.097e-03 -2.036e-02 -2.439e-02  1.420e-02  2.158e-08  2.116e-08  9.984e-10  1.216e-09    0.1289   -0.2729   -0.3056   -0.1796    0.2126   -0.1897    3.1416    3.1416 -1.764e-21 -2.174e-23    3.1416 -1.764e-21  110.0000 2
246  2.812e-04 -5.771e-02  5.678e-04  1.379e-02 -2.220e-02  6.241e-03  2.452e-08  2.019e-08  1.021e-09  1.096e-09    0.1220    0.4843  3.612e-02   -0.2649 -2.363e-02 -6.124e-02    3.1416    3.1416 -2.351e-20  5.711e-26    3.1416 -2.351e-20  110.0000 2
247  2.149e-02  3.611e-03  7.029e-03 -6.206e-03 -1.177e-02  6.999e-03  2.325e-08  2.313e-08  1.012e-09  1.050e-09   -0.2255    0.1668   -0.3585 -4.698e-02    0.4412   -0.2773    3.1416    3.1416 -1.796e-20  7.435e-19    3.1416 -1.796e-20  110.0000 2
248  1.603e-02  2.299e-02 -1.055e-02 -1.814e-02  1.432e-03  1.480e-02  2.186e-08  2.391e-08  8.992e-10  9.087e-10    0.3025  1.897e-02   -0.4987   -0.3806   -0.3961    0.7245    3.1416    3.1416  3.519e-21  6.065e-25    3.1416  3.519e-21  110.0000 2
249 -1.262e-02  7.824e-03 -1.375e-02  1.333e-05  2.146e-02 -2.231e-02  1.928e-08  1.990e-08  1.016e-09  1.047e-09 -5.927e-02  6.462e-02   -0.3586   -0.2767    0.4640    0.3414    3.1416    3.1416 -2.279e-22 -7.138e-22    3.1416 -2.279e-22  110.0000 2
250  9.904e-04 -2.150e-02  1.086e-03  4.278e-03 -2.674e-03 -3.351e-02  2.177e-08  1.854e-08  1.057e-09  9.704e-10   -0.1173  7.114e-02    0.2093  4.685e-02    0.1472   -0.2003    3.1416    3.1416  1.249e-22 -1.399e-20    3.1416  1.249e-22  110.0000 2
251 -1.913e-03 -8.842e-03  2.475e-02  1.652e-03  5.604e-03 -4.582e-03  2.036e-08  2.269e-08  1.015e-09  1.187e-09   -0.2453 -9.699e-02 -2.045e-02    0.2929  6.671e-02    0.2804    3.1416    3.1416  1.544e-19 -1.012e-20    3.1416  1.544e-19  110.0000 2
252 -2.246e-02  6.810e-03 -2.256e-02 -1.275e-02  2.467e-02  4.621e-03  2.267e-08  2.395e-08  9.002e-10  9.929e-10    0.5385  6.367e-02 -1.283e-02  6.917e-02   -0.5676    0.2019    3.1416    3.1416 -2.657e-16  3.175e-18    3.1416 -2.657e-16  110.0000 2
253  2.601e-02 -1.115e-02 -3.061e-02  2.669e-03 -5.170e-03 -4.997e-03  2.110e-08  2.513e-08  9.512e-10  1.104e-09  9.327e-02   -0.2011  1.794e-02 -6.978e-03   -0.3562    0.1142    3.1416    3.1416 -8.166e-19 -2.857e-21    0.8945 -8.166e-19  110.0000 2
254  8.395e-03 -8.441e-03 -2.022e-03 -2.546e-02 -1.483e-02 -6.639e-03  2.010e-08  2.464e-08  8.492e-10  1.061e-09    0.2580   -0.1974    0.3357    0.1690   -0.6865    0.1105    3.1416    3.1416  3.574e-24  1.434e-21    3.1416  3.574e-24  110.0000 2
255 -1.457e-02 -2.186e-02 -2.006e-02  6.443e-03  1.536e-03 -2.038e-02  2.320e-08  2.148e-08  1.027e-09  9.048e-10   -0.2403    0.3792  3.854e-02 -1.942e-02    0.2303  1.035e-02    3.1416    3.1416  1.603e-22  2.162e-21    3.1416  1.603e-22  110.0000 2
256  1.609e-02 -2.374e-02  2.520e-02 -1.400e-02  1.014e-02  5.582e-03  2.024e-08  2.162e-08  9.192e-10  1.135e-09    0.2369    0.4681 -5.631e-02   -0.7551    0.2455   -0.4296    3.1416    3.1416  7.026e-21  9.411e-23    3.1416  7.026e-21  110.0000 2
257 -8.714e-03  2.563e-02 -6.421e-03  1.183e-02 -3.298e-03 -2.056e-02  2.219e-08  2.281e-08  9.699e-10  9.049e-10   -0.5417    0.1460   -0.5143    0.4626 -4.897e-04   -0.1102    3.1416    3.1416  4.653e-19  8.875e-19    3.1416  4.653e-19  110.0000 2
258  8.478e-03 -1.756e-02 -1.235e-02  7.779e-03 -1.437e-02  1.018e-02  2.491e-08  1.910e-08  9.409e-10  1.209e-09    0.6011  7.369e-02   -0.1662    0.1487   -0.2335   -0.2271    3.1416    3.1416  1.733e-21  1.013e-25    3.1416  1.733e-21  110.0000 2
259 -7.261e-03  4.449e-03 -2.007e-02 -1.252e-02  1.942e-02  1.009e-02  2.149e-08  2.205e-08  9.691e-10  1.005e-09  3.598e-02   -0.3051   -0.7708   -0.7865 -3.859e-02    0.5524    3.1416    3.1416  1.479e-17 -2.606e-23    3.1416  1.479e-17  110.0000 2
260 -1.602e-02 -4.228e-02 -3.555e-03 -2.117e-03  2.353e-02  9.138e-03  2.203e-08  1.986e-08  9.877e-10  1.094e-09  3.184e-03    0.3318    0.2884 -5.308e-02    0.2280    0.1312    3.1416    3.1416  9.891e-19 -2.689e-22    3.1416  9.891e-19  110.0000 2
261 -1.739e-03 -4.626e-03  3.426e-03 -5.719e-03  1.117e-02 -4.168e-02  2.013e-08  1.778e-08  9.185e-10  9.345e-10   -0.8743   -0.2266    0.6699   -0.3853    0.2303    0.2393    3.1416    3.1416  1.364e-20  5.526e-20    3.1416  1.364e-20  110.0000 2
262  1.532e-02  4.177e-03  2.083e-03  1.492e-02 -1.326e-02 -1.848e-02  2.383e-08  2.009e-08  1.026e-09  8.498e-10    0.5269    0.2607    0.8143   -0.2030    0.2497    0.1651    3.1416    3.1416  5.886e-20 -1.397e-24    3.1416  5.886e-20  110.0000 2
263 -2.237e-02 -1.742e-02 -2.442e-02  1.364e-02  2.568e-02 -3.402e-02  2.516e-08  1.916e-08  1.139e-09  1.181e-09    0.2888    0.1023    0.2749  2.739e-03   -0.3166    0.2670    3.1416    3.1416 -1.968e-19  2.352e-26    3.1416 -1.968e-19  110.0000 2
264  1.029e-02 -2.355e-02 -8.648e-03  2.452e-02  4.615e-03 -2.578e-02  2.310e-08  2.095e-08  9.764e-10  8.302e-10    0.4879    0.1119   -0.6887    0.2480    0.3361   -0.2520    3.1416    3.1416  4.036e-18 -2.100e-25    3.1416  4.036e-18  110.0000 2
265 -2.359e-02  9.629e-04  1.651e-02 -1.384e-02  4.035e-02  3.316e-02  2.055e-08  2.006e-08  1.006e-09  9.624e-10 -9.713e-02   -1.0021    0.4524    0.3473    0.1198   -0.1942    3.1416    3.1416  5.244e-19  1.124e-21    3.1416  5.244e-19  110.0000 2
266 -5.826e-04  1.657e-02 -3.785e-03 -4.733e-03  8.098e-03 -1.118e-03  2.470e-08  2.191e-08  8.677e-10  1.046e-09 -5.266e-02    0.4435  8.183e-02    0.2709    0.2035   -0.2074    3.1416    3.1416 -8.157e-21 -1.066e-22    3.1416 -8.157e-21  110.0000 2
267 -4.346e-03  3.720e-02 -1.571e-03 -4.286e-03  3.806e-02 -5.383e-03  2.184e-08  2.175e-08  1.034e-09  1.097e-09  6.287e-02 -3.850e-03   -0.1341    0.3492 -5.004e-02    0.5123    3.1416    3.1416 -8.253e-19 -8.495e-21    3.1416 -8.253e-19  110.0000 2
268 -7.758e-04  1.487e-02  4.847e-03 -2.773e-02 -5.542e-03  1.305e-02  2.195e-08  2.122e-08  9.415e-10  9.164e-10    0.1699 -7.214e-02    0.4277    0.1817   -0.6101  8.251e-02    3.1416    3.1416  8.844e-18 -1.863e-24    3.1416  8.844e-18  110.0000 2
269 -1.188e-02 -1.392e-02  1.861e-03 -1.469e-02 -7.623e-04  8.134e-03  1.913e-08  2.345e-08  1.018e-09  1.023e-09    0.4337    0.4528    0.1069    0.3321    0.3881  2.742e-02    3.1416    3.1416  7.703e-20 -3.151e-21    3.1416  7.703e-20  110.0000 2
270  7.403e-03 -1.208e-02 -2.021e-02 -5.006e-03 -4.139e-02 -1.408e-02  2.082e-08  1.971e-08  1.089e-09  1.131e-09   -0.3877    0.5020   -0.4837   -0.4853   -0.6118    0.4258    3.1416    3.1416  5.334e-19 -2.849e-22    3.1416  5.334e-19  110.0000 2
271 -1.264e-02 -4.296e-02  1.866e-02 -8.092e-04 -5.522e-03 -5.642e-03  2.625e-08  2.184e-08  1.070e-09  1.077e-09   -0.4727    0.4444 -9.208e-03   -0.8533  8.692e-02    0.3513    3.1416    3.1416 -1.503e-19    0.    3.1416 -1.503e-19  110.0000 2
272 -1.334e-02  2.256e-03  3.939e-02 -1.786e-02  1.823e-02  8.355e-03  2.244e-08  1.753e-08  1.116e-09  1.174e-09   -0.3628 -8.759e-02   -0.2032    0.1291   -0.4378   -0.1167    3.1416    3.1416  1.896e-19 -1.625e-24    3.1416  1.896e-19  110.0000 2
273 -1.281e-02  7.970e-03  8.296e-03 -1.501e-02 -6.017e-03  2.202e-02  2.433e-08  1.785e-08  1.131e-09  1.098e-09   -0.5890    0.5016    0.1999   -0.2851   -0.2990    0.3062    3.1416    3.1416 -2.541e-20  1.738e-26    3.1416 -2.541e-20  110.0000 2
274 -1.749e-02  2.071e-02  3.998e-02  1.400e-02  5.144e-03  1.399e-02  2.451e-08  2.590e-08  1.084e-09  9.418e-10  4.086e-02    0.3527    0.4327    0.1359    0.6570   -0.5566    3.1416    3.1416 -3.543e-19    0.    3.1416 -3.543e-19  110.0000 2
275  1.231e-02 -1.795e-02  8.596e-03  1.033e-02  9.038e-03 -1.768e-02  2.277e-08  2.447e-08  9.423e-10  1.056e-09  4.463e-02    0.1088   -0.2683    0.1069  3.312e-02   -0.4556    3.1416    3.1416  8.375e-19 -7.030e-24    3.1416  8.375e-19  110.0000 2
276 -1.444e-02 -1.534e-02 -5.212e-03  1.520e-02  3.332e-03  1.074e-03  2.273e-08  2.510e-08  9.578e-10  1.103e-09    0.3618   -0.7590  3.504e-02   -0.1784    0.1592   -0.1404    3.1416    3.1416 -1.641e-19 -3.576e-23    0.7751 -1.641e-19  110.0000 2
277 -7.677e-03  3.393e-03  1.939e-02 -7.688e-03 -9.240e-03  2.305e-02  2.514e-08  2.353e-08  1.037e-09  1.057e-09    0.4413   -0.1727    0.1888    0.1064   -0.5621   -0.1311    3.1416    3.1416  1.201e-19  1.697e-27    3.1416  1.201e-19  110.0000 2
278  2.306e-03 -1.385e-02  8.865e-04 -2.988e-03 -8.416e-03  1.216e-02  2.247e-08  2.096e-08  9.140e-10  1.041e-09    0.1844    0.3480   -0.2485   -0.1441    0.3556    0.3525    3.1416    3.1416 -4.219e-19  1.347e-23    3.1416 -4.219e-19  110.0000 2
279 -2.006e-02 -1.228e-03 -3.911e-02 -6.583e-03 -8.860e-04 -8.708e-03  2.124e-08  1.654e-08  1.006e-09  1.021e-09   -0.3284   -0.2861    0.1336 -7.173e-02   -0.1274  6.904e-02    3.1416    3.1416 -3.052e-20 -1.289e-21    3.1416 -3.052e-20  110.0000 2
280  1.187e-02  2.724e-02 -3.052e-03  7.304e-03 -5.461e-03  1.043e-02  2.035e-08  2.261e-08  9.700e-10  1.060e-09    0.4163    0.1250    0.4180    0.5413   -0.4357  1.479e-03    3.1416    3.1416  5.738e-20  4.598e-24    3.1416  5.738e-20  110.0000 2
281  8.151e-04 -1.502e-02  1.505e-05 -1.064e-02 -9.626e-03 -2.108e-02  2.304e-08  2.418e-08  9.729e-10  1.048e-09   -0.6908  1.597e-02 -1.430e-03  8.963e-03   -0.1367 -6.526e-02    3.1416    3.1416 -1.130e-21 -1.734e-22    3.1416 -1.130e-21  110.0000 2
282 -3.783e-02 -2.019e-02  2.112e-02 -2.658e-02  9.839e-03 -3.603e-02  2.102e-08  1.881e-08  1.036e-09  8.436e-10  4.651e-02   -0.2530   -0.2090   -0.8556    0.3790    0.2918    3.1416    3.1416  4.321e-23 -2.150e-24    3.1416  4.321e-23  110.0000 2
283 -7.517e-04 -9.775e-03  2.188e-02 -1.658e-02  1.178e-02  1.571e-02  2.195e-08  2.228e-08  9.424e-10  9.891e-10   -0.6718    0.3508   -0.1906    0.3027  7.752e-02    0.2115    3.1416    3.1416  2.967e-20 -2.629e-22    3.1416  2.967e-20  110.0000 2
284 -2.919e-02  1.964e-03 -9.492e-03  5.056e-03  1.821e-02  1.240e-02  1.760e-08  1.823e-08  1.056e-09  1.171e-09    0.3665   -0.5094    0.5376   -0.4970   -0.1676   -0.2520    3.1416    3.1416 -3.466e-22  5.463e-23    3.1416 -3.466e-22  110.0000 2
285  7.804e-03 -5.197e-03  1.126e-03  1.425e-02  1.954e-03 -2.318e-02  2.534e-08  1.930e-08  1.102e-09  9.524e-10   -0.4550 -1.290e-02  5.003e-02   -0.2997 -6.277e-02  7.366e-02    3.1416    3.1416 -1.106e-17 -5.449e-27    3.1416 -1.106e-17  110.0000 2
286 -1.637e-02 -9.439e-03 -1.066e-02  1.166e-02  1.459e-02  5.835e-03  2.321e-08  2.373e-08  9.300e-10  9.581e-10    0.2950    0.1315    0.3018    0.4569    0.1215    0.3774    3.1416    3.1416 -3.824e-21 -2.077e-24    3.1416 -3.824e-21  110.0000 2
287  2.823e-02 -3.173e-02  7.499e-03  1.794e-02  8.108e-03 -1.760e-02  1.996e-08  2.339e-08  1.047e-09  9.626e-10   -0.3692    0.1664  3.460e-02   -0.5301    0.2826   -0.3657    3.1416    3.1416 -2.380e-18  7.000e-24    3.1416 -2.380e-18  110.0000 2
288 -3.669e-02 -2.079e-02  2.071e-02 -3.811e-03  8.465e-03  3.792e-03  1.952e-08  2.269e-08  1.138e-09  1.156e-09   -0.6751  6.723e-02    0.2449  4.762e-02   -0.1315   -0.3095    3.1416    3.1416 -8.086e-21  1.760e-24    3.1416 -8.086e-21  110.0000 2
289 -2.854e-02 -1.406e-02 -9.328e-03 -1.254e-02 -3.016e-02 -2.416e-04  2.098e-08  2.111e-08  9.140e-10  1.003e-09   -0.2089    0.2767   -0.4498   -0.7102 -2.878e-02 -3.306e-02    3.1416    3.1416 -5.301e-19  1.035e-20    3.1416 -5.301e-19  110.0000 2
290 -1.275e-02 -1.522e-02  1.270e-02 -2.651e-02 -1.495e-02 -2.955e-02  2.597e-08  2.070e-08  9.731e-10  1.063e-09   -0.1131    0.4328    0.3077  4.652e-02    0.2339   -0.6293    3.1416    3.1416  4.377e-17 -3.894e-24    3.1416  4.377e-17  110.0000 2
291  1.500e-02 -2.591e-02 -2.172e-03  3.126e-02 -1.578e-03  1.703e-02  1.938e-08  2.592e-08  9.014e-10  9.324e-10    0.4065   -0.2989   -0.6531    0.6262   -0.3759   -0.3708    3.1416    3.1416  1.079e-20 -2.283e-22    3.1416  1.079e-20  110.0000 2
292 -1.476e-02  1.649e-02  1.114e-02  2.057e-03 -5.908e-03  3.258e-03  2.092e-08  2.439e-08  8.045e-10  8.837e-10   -0.2968    0.2248    0.1610    0.1792   -0.8589 -7.492e-02    3.1416    3.1416  7.568e-22 -2.216e-22    3.1416  7.568e-22  110.0000 2
293 -3.532e-03 -6.316e-03  8.580e-03 -3.430e-03 -1.405e-02  4.860e-04  1.856e-08  2.117e-08  1.012e-09  1.031e-09    0.3816    0.1162    0.1345   -0.3014   -0.4020   -0.2019    3.1416    3.1416 -2.685e-21 -1.275e-20    3.1416 -2.685e-21  110.0000 2
294  1.065e-02 -2.423e-02  1.353e-02  4.737e-03 -5.002e-02 -2.310e-02  2.042e-08  2.271e-08  1.172e-09  1.117e-09   -0.1968  5.675e-02 -5.616e-02   -0.7108   -0.5268  3.120e-02    3.1416    3.1416 -4.375e-19  1.697e-25    3.1416 -4.375e-19  110.0000 2
295  1.494e-03  7.792e-03 -2.219e-02  1.876e-03  2.517e-03  2.033e-03  1.938e-08  2.151e-08  9.942e-10  1.093e-09 -3.289e-03   -0.8056    0.4227 -3.654e-02    0.6524   -0.1641    3.1416    3.1416  7.082e-22  4.268e-22    3.1416  7.082e-22  110.0000 2
296  2.500e-02 -6.798e-03  1.244e-02  3.780e-02  1.971e-03 -1.580e-02  2.214e-08  2.126e-08  1.064e-09  7.669e-10   -0.2756   -0.8566    0.3242    0.7639    0.4364   -0.1497    3.1416    3.1416 -5.933e-22 -1.065e-22    3.1416 -5.933e-22  110.0000 2
297  1.299e-02  3.841e-02 -2.189e-02  9.055e-03 -2.679e-03  1.534e-03  2.729e-08  2.177e-08  8.784e-10  9.890e-10   -0.2811    0.5582    0.3063 -2.780e-03 -5.519e-02    0.1828    3.1416    3.1416  3.391e-19  1.328e-18    3.1416  3.391e-19  110.0000 2
298  1.686e-02 -3.609e-02 -2.758e-02 -7.597e-03 -1.617e-02 -9.865e-03  2.555e-08  2.455e-08  1.063e-09  9.413e-10 -9.601e-02 -7.295e-02    0.4895    0.3354   -0.1523    0.3046    3.1416    3.1416 -5.094e-22    0.    3.1416 -5.094e-22  110.0000 2
299  7.818e-03 -5.289e-03  7.039e-03 -1.037e-02 -1.280e-02  1.222e-02  2.183e-08  2.058e-08  9.414e-10  1.113e-09   -0.4590   -0.6892   -0.6436    0.1720    0.3836   -0.2187    3.1416    3.1416  9.143e-19 -2.228e-21    3.1416  9.143e-19  110.0000 2
300  1.812e-02  1.192e-02 -1.788e-02 -3.816e-02  1.691e-02 -2.823e-03  2.311e-08  2.177e-08  1.040e-09  9.709e-10  5.073e-02    0.1636    0.8416    1.0300    0.1508    0.2788    3.1416    3.1416 -3.089e-19  1.134e-24    3.1416 -3.089e-19  110.0000 2
301  8.387e-03  5.527e-03  3.959e-03  5.854e-03  6.005e-02  2.277e-02  1.960e-08  1.749e-08  1.036e-09  9.678e-10   -0.5463   -0.2480    0.2864    0.2184   -0.1027   -0.4263    3.1416    3.1416 -8.167e-20  1.932e-23    3.1416 -8.167e-20  110.0000 2
302  1.875e-02  2.434e-03 -5.159e-03  6.000e-03  2.087e-02 -8.167e-03  2.063e-08  2.286e-08  9.212e-10  8.711e-10    0.3749   -0.2452 -3.902e-03   -0.1036   -0.1029   -0.4213    3.1416    3.1416  3.632e-20 -3.103e-22    3.1416  3.632e-20  110.0000 2
303 -3.121e-02  7.483e-03 -1.932e-02  1.629e-02  5.217e-03  1.385e-02  1.986e-08  2.037e-08  9.658e-10  9.310e-10    0.4954 -5.520e-02    0.1403 -8.356e-02    0.3718 -5.647e-02    3.1416    3.1416  1.001e-19  3.223e-19    3.1416  1.001e-19  110.0000 2
304 -1.357e-02  1.738e-02  5.739e-03  1.971e-03 -4.652e-03 -1.523e-02  2.279e-08  2.608e-08  7.256e-10  1.010e-09   -0.3059    0.7043   -0.7656   -0.5046   -0.1740    0.5861    3.1416    3.1416 -2.593e-20 -2.654e-24    0.7355 -2.593e-20  110.0000 2
305  6.965e-03  6.634e-03 -1.932e-04  4.823e-03 -1.296e-03  1.523e-02  2.204e-08  2.237e-08  9.458e-10  9.973e-10   -0.1356    0.3745  7.621e-02  4.672e-02   -0.2606    0.2002    3.1416    3.1416 -3.954e-22 -3.778e-21    3.1416 -3.954e-22  110.0000 2
306 -1.829e-02 -3.265e-02  8.495e-04 -2.214e-02  2.100e-02 -1.661e-03  2.128e-08  1.831e-08  8.484e-10  7.860e-10 -9.562e-02 -9.294e-04    0.1444 -7.637e-02 -7.019e-02 -2.623e-03    3.1416    3.1416  3.448e-21 -4.383e-23    3.1416  3.448e-21  110.0000 2
307  3.078e-03  2.166e-02 -9.167e-03 -1.550e-02 -5.145e-02  2.426e-02  2.691e-08  2.048e-08  1.106e-09  1.066e-09    0.2815  2.221e-02 -2.017e-03    0.6156 -7.279e-02    0.1824    0.9091    3.1416  3.608e-19  6.519e-22    3.1416  3.608e-19  110.0000 2
308  1.208e-02  3.317e-02 -1.093e-02  6.483e-03  7.882e-03 -1.275e-02  1.993e-08  2.014e-08  1.021e-09  9.262e-10    0.1969   -0.1598    0.1145    0.3364    0.5321 -4.406e-02    3.1416    3.1416  5.330e-17 -2.082e-20    3.1416  5.330e-17  110.0000 2
309  1.051e-03 -1.396e-02  3.083e-03 -3.758e-03  1.804e-02  5.267e-04  2.119e-08  2.565e-08  1.091e-09  9.712e-10 -7.010e-02   -0.3188   -0.2056   -0.1694   -0.2436   -0.2634    3.1416    3.1416 -1.314e-20  3.581e-24    3.1416 -1.314e-20  110.0000 2
310  1.053e-02 -4.565e-03  1.698e-02  1.414e-02 -2.737e-02 -1.441e-03  2.466e-08  2.467e-08  9.331e-10  7.635e-10   -0.1847   -0.3703    0.1852    0.1299   -0.2554   -0.1064    3.1416    3.1416  1.043e-19 -3.481e-27    3.1416  1.043e-19  110.0000 2
311 -1.472e-02 -9.339e-03  8.303e-03  2.278e-02 -1.846e-02  2.734e-02  2.445e-08  2.027e-08  9.242e-10  1.004e-09    0.2320   -0.1688    0.6605    0.2466   -0.7137    0.4729    3.1416    3.1416 -3.149e-16  5.337e-21    3.1416 -3.149e-16  110.0000 2
312  2.889e-02 -2.782e-02  1.424e-02 -2.306e-02  8.590e-03 -2.773e-02  2.158e-08  2.442e-08  9.079e-10  9.183e-10    0.3445   -0.1773   -0.3194 -7.541e-02    0.3675  6.700e-02    3.1416    3.1416  1.426e-20 -4.125e-19    3.1416  1.426e-20  110.0000 2
313 -4.158e-02  1.447e-02  2.320e-02 -9.561e-03 -4.002e-02 -4.752e-03  2.403e-08  2.290e-08  9.448e-10  9.977e-10  4.990e-02   -0.2142    0.5768  2.203e-02   -0.1062  7.723e-02    3.1416    3.1416 -6.980e-21 -6.540e-20    3.1416 -6.980e-21  110.0000 2
314 -2.545e-04 -1.463e-04 -1.314e-02 -3.578e-02  1.333e-02 -3.368e-03  2.465e-08  2.049e-08  1.091e-09  9.008e-10    0.2724  9.595e-02   -0.1300    0.6276   -0.2051    0.3596    3.1416    3.1416 -1.398e-20    0.    3.1416 -1.398e-20  110.0000 2
315 -8.640e-03 -3.077e-04 -3.395e-02 -2.565e-02 -6.389e-03 -1.731e-02  1.899e-08  2.018e-08  1.068e-09  1.019e-09   -0.3649    0.1369 -3.017e-02    0.1531    0.1904   -0.4701    3.1416    3.1416 -6.250e-21  2.390e-24    3.1416 -6.250e-21  110.0000 2
316 -7.312e-03 -9.122e-03  3.355e-03  1.424e-02  4.149e-04 -1.454e-02  2.488e-08  2.189e-08  1.091e-09  1.067e-09   -0.5232    0.2450    1.0612    0.1700   -0.1896    0.2818    3.1416    3.1416 -6.220e-21  3.422e-26    3.1416 -6.220e-21  110.0000 2
317 -2.236e-02  5.994e-03 -1.242e-02 -3.020e-02 -1.223e-02  9.485e-03  1.870e-08  2.437e-08  9.480e-10  9.654e-10    0.1446   -0.1275   -0.5645    0.5050    0.5769   -0.4686    3.1416    3.1416  7.206e-19 -1.779e-21    3.1416  7.206e-19  110.0000 2
318 -1.442e-02 -3.445e-03  2.614e-02 -1.214e-02 -1.869e-02  1.205e-03  2.471e-08  2.195e-08  9.765e-10  9.671e-10    0.2441   -0.1095   -0.1009   -0.5816    0.5259   -0.5460    3.1416    3.1416 -6.201e-21 -7.102e-23    3.1416 -6.201e-21  110.0000 2
[...]
921  1.048e-02  1.681e-02  1.968e-03 -2.924e-02  2.244e-02  2.816e-02  2.166e-08  2.349e-08  1.056e-09  1.092e-09   -0.1083    0.1142   -0.3107 -1.620e-02 -8.404e-02 -4.648e-02    3.1416    3.1416  1.102e-20  8.853e-24    3.1416  1.102e-20  110.0000 2
922 -3.219e-02 -1.728e-02  3.283e-04  5.937e-03  6.115e-03  2.644e-02  2.256e-08  1.889e-08  8.528e-10  1.004e-09  3.453e-02   -0.3709    0.3514 -2.548e-02   -0.7012    0.2188    3.1416    3.1416 -1.341e-19 -7.724e-23    3.1416 -1.341e-19  110.0000 2
923 -3.584e-03 -2.170e-02 -2.297e-02  3.880e-03 -1.008e-04 -4.662e-03  2.225e-08  2.627e-08  1.181e-09  1.099e-09   -0.3769   -0.1375    0.2632   -0.1766    0.2242   -0.5703    3.1416    3.1416 -3.383e-20 -1.491e-24    0.8125 -3.383e-20  110.0000 2
924 -1.338e-03 -9.941e-03  7.841e-03  1.128e-02 -2.041e-02 -4.164e-03  2.340e-08  1.858e-08  1.027e-09  1.029e-09    0.4264   -0.2522   -0.1680    0.2247   -0.2664   -0.3331    3.1416    3.1416 -3.576e-20 -7.424e-24    3.1416 -3.576e-20  110.0000 2
925 -1.326e-02  1.508e-03  5.182e-04 -2.719e-02  1.028e-02  1.843e-02  2.063e-08  1.822e-08  1.018e-09  9.623e-10    0.2351    0.2206   -0.4404   -0.2672    0.2428    0.2984    3.1416    3.1416 -1.872e-23  6.121e-24    3.1416 -1.872e-23  110.0000 2
926 -8.607e-03  3.648e-02  2.489e-02 -1.749e-02 -9.464e-04 -7.726e-03  2.305e-08  2.051e-08  1.139e-09  9.603e-10    0.2489    0.3889   -0.2024    0.1067   -0.3856   -0.3578    3.1416    3.1416  5.102e-19 -6.069e-26    3.1416  5.102e-19  110.0000 2
927 -6.942e-03 -2.100e-02  1.209e-02  2.103e-02 -1.814e-02  7.541e-03  2.076e-08  1.964e-08  8.949e-10  1.040e-09    0.5955   -0.3373    0.3044   -0.4099 -9.648e-02   -0.3648    3.1416    3.1416  7.768e-19 -5.214e-15    3.1416  7.768e-19  110.0000 2
928  3.884e-02 -2.169e-02 -6.844e-03 -2.108e-02  9.595e-03  6.160e-03  2.505e-08  2.120e-08  9.728e-10  9.867e-10   -0.4586  9.352e-02    0.4552   -0.2909  7.389e-02    0.4239    3.1416    3.1416 -6.113e-16 -3.436e-21    3.1416 -6.113e-16  110.0000 2
929 -4.759e-03 -8.048e-04 -2.556e-02 -2.103e-02  1.470e-03  2.182e-02  2.440e-08  1.955e-08  1.116e-09  8.969e-10   -0.2146    0.1571   -0.3633 -1.668e-02 -3.590e-02   -0.1551    3.1416    3.1416 -2.717e-21    0.    3.1416 -2.717e-21  110.0000 2
930  9.911e-03 -8.324e-04 -1.427e-02 -1.644e-02 -4.536e-04  7.589e-03  2.289e-08  2.251e-08  9.768e-10  1.023e-09 -2.642e-02   -0.4571   -0.1992   -0.4841    0.2194  7.877e-02    3.1416    3.1416  6.263e-19  5.194e-20    3.1416  6.263e-19  110.0000 2
931 -2.688e-03  2.688e-02  1.133e-02 -1.385e-03 -6.679e-03 -1.513e-03  2.083e-08  2.416e-08  1.063e-09  9.692e-10    0.2998    0.8006   -0.1843 -5.118e-03    0.8290   -0.1931    3.1416    3.1416  6.516e-21  3.106e-26    3.1416  6.516e-21  110.0000 2
932 -3.374e-02  2.215e-03  2.938e-03 -1.363e-02  6.875e-03  1.895e-03  2.367e-08  1.973e-08  9.375e-10  1.002e-09    0.7017    0.5329    0.2305    0.1109   -0.4804   -0.2288    3.1416    3.1416  1.657e-19  1.294e-18    3.1416  1.657e-19  110.0000 2
933 -6.672e-03 -1.176e-04  1.535e-02 -2.118e-02 -4.593e-03  1.598e-02  2.655e-08  2.428e-08  9.603e-10  9.586e-10    0.6294    0.4953    0.1754 -5.262e-02    0.5511 -2.096e-02    3.1416    3.1416 -3.325e-21 -4.163e-27    3.1416 -3.325e-21  110.0000 2
934  2.621e-02  2.603e-02 -1.592e-02 -9.211e-03  1.483e-02  1.715e-02  2.491e-08  2.369e-08  1.177e-09  8.561e-10   -0.3393    0.5423    0.5926    0.3589    0.7162    0.3767    0.7547    3.1416  2.182e-19    0.    3.1416  2.182e-19  110.0000 2
935  7.742e-03  2.982e-02 -2.997e-02 -1.756e-02  2.416e-02  6.869e-03  2.411e-08  2.442e-08  9.633e-10  1.183e-09   -0.2620   -0.1859    0.1340    0.2629    0.2008    0.4329    3.1416    3.1416  1.983e-20  5.577e-22    0.6698  1.983e-20  110.0000 2
936  6.484e-03  3.851e-03  1.082e-02 -2.119e-02  9.081e-03 -1.850e-02  2.511e-08  2.091e-08  9.312e-10  1.065e-09   -0.3504  2.094e-02   -0.1087  2.100e-02   -0.1198    0.6935    3.1416    3.1416  4.072e-18  6.557e-23    3.1416  4.072e-18  110.0000 2
937 -1.541e-02  2.052e-02 -2.017e-02  1.486e-02 -5.758e-03  1.705e-03  2.158e-08  2.420e-08  9.553e-10  9.650e-10  8.840e-02    0.6597 -7.435e-02 -1.460e-03    0.4742    0.6367    3.1416    3.1416  3.886e-18  8.760e-24    3.1416  3.886e-18  110.0000 2
938 -8.568e-06  5.236e-03 -2.418e-02  1.868e-02  2.201e-03 -1.481e-03  2.491e-08  2.345e-08  1.093e-09  9.997e-10    0.5338   -0.2607   -0.5263    0.1250   -0.1014    0.4601    3.1416    3.1416 -6.826e-23  2.542e-27    3.1416 -6.826e-23  110.0000 2
939 -2.270e-02  3.336e-02 -6.835e-03 -1.116e-02  1.835e-02 -1.053e-02  2.498e-08  2.318e-08  9.813e-10  8.657e-10   -0.7115 -5.936e-02   -0.1941   -0.1719   -0.4552  4.523e-02    3.1416    3.1416  1.399e-19  2.172e-25    3.1416  1.399e-19  110.0000 2
940  1.145e-02 -1.181e-02  2.851e-03 -3.350e-02 -1.168e-02  1.112e-02  2.310e-08  1.849e-08  9.251e-10  9.929e-10  1.292e-02 -8.979e-02    0.1809   -0.1153  2.430e-02   -0.1653    3.1416    3.1416  2.201e-17  8.220e-21    3.1416  2.201e-17  110.0000 2
941 -5.642e-03  2.128e-02 -8.272e-03  3.001e-02 -2.168e-03  4.470e-03  2.036e-08  2.001e-08  9.912e-10  1.028e-09   -0.6959    0.4012    0.3751   -0.3416    0.1590   -0.1082    3.1416    3.1416  2.310e-21  1.093e-24    3.1416  2.310e-21  110.0000 2
942  1.195e-02 -9.368e-05  1.384e-02 -2.294e-02 -8.072e-03  1.619e-02  2.542e-08  2.006e-08  1.114e-09  9.724e-10 -8.629e-02    0.2829    0.3498   -0.1268    0.4347   -0.4003    3.1416    3.1416 -4.081e-22    0.    3.1416 -4.081e-22  110.0000 2
943 -1.451e-02  8.610e-03  2.336e-02  7.176e-03 -2.796e-02 -1.678e-02  2.153e-08  2.462e-08  9.273e-10  1.052e-09   -0.5789 -6.160e-02   -0.3024    0.2957   -0.3467    0.2319    3.1416    3.1416  4.534e-22 -1.010e-20    3.1416  4.534e-22  110.0000 2
944 -1.092e-02  3.909e-03  2.811e-02 -2.165e-02  1.184e-03 -1.230e-02  2.723e-08  2.278e-08  1.208e-09  9.723e-10  1.549e-03   -0.4028   -0.1047    0.5471   -0.9583    0.3169    0.6880    3.1416 -4.045e-21    0.    3.1416 -4.045e-21  110.0000 2
945  9.646e-04  3.063e-03  2.945e-02  1.802e-02 -9.942e-03  1.335e-02  2.661e-08  2.300e-08  1.082e-09  1.005e-09   -0.3209 -7.628e-02  8.016e-03   -0.1993   -0.5079    0.1537    1.0467    3.1416  9.233e-17  1.055e-20    3.1416  9.233e-17  110.0000 2
946 -1.233e-02 -2.415e-02  1.214e-02  8.282e-03 -5.932e-03  5.106e-03  2.139e-08  2.189e-08  9.570e-10  9.430e-10  8.491e-02    0.5435    0.5282   -0.4493   -0.4127   -0.1258    3.1416    3.1416  4.839e-20  8.291e-17    3.1416  4.839e-20  110.0000 2
947 -4.044e-03  2.189e-02 -6.947e-03 -2.753e-02  7.190e-03  6.938e-03  2.535e-08  2.155e-08  1.036e-09  1.013e-09    0.3496    0.2904  8.685e-02   -0.1690 -3.057e-02   -0.4217    3.1416    3.1416 -5.701e-17  8.828e-27    3.1416 -5.701e-17  110.0000 2
948 -8.744e-03 -2.643e-02 -2.275e-02 -4.687e-03  2.567e-02 -9.216e-03  1.905e-08  2.024e-08  1.075e-09  1.165e-09    0.1072    0.4013 -3.215e-02 -3.111e-02    0.6337    0.1169    3.1416    3.1416 -4.217e-21 -7.902e-25    3.1416 -4.217e-21  110.0000 2
949 -6.690e-03 -6.314e-04  1.148e-02 -5.247e-03  1.373e-02  3.727e-03  2.252e-08  1.938e-08  1.101e-09  8.348e-10   -0.4324 -4.586e-02   -0.1271   -0.2590    0.4441    0.5942    3.1416    3.1416 -1.491e-20 -9.872e-22    3.1416 -1.491e-20  110.0000 2
950  2.729e-02  1.744e-02 -7.158e-03 -1.478e-02 -4.714e-03  7.237e-03  1.884e-08  2.256e-08  9.869e-10  1.054e-09    0.1597   -0.3201 -2.996e-02   -0.1058    0.5761    0.2813    3.1416    3.1416  1.155e-20  1.717e-21    3.1416  1.155e-20  110.0000 2
951  1.777e-02  1.824e-03 -1.982e-02  1.534e-02  2.100e-02  1.821e-03  2.456e-08  2.190e-08  8.399e-10  9.709e-10   -0.1669    0.1246   -0.3671    0.1355   -0.2579  5.221e-02    3.1416    3.1416 -2.065e-16 -3.573e-21    3.1416 -2.065e-16  110.0000 2
952  5.873e-03  9.866e-03  1.721e-02 -1.550e-02 -1.586e-02  1.671e-02  2.086e-08  2.088e-08  9.921e-10  9.943e-10   -0.3482    0.4086  3.281e-02 -8.192e-02   -0.3814   -0.6207    3.1416    3.1416 -3.989e-21  2.433e-22    3.1416 -3.989e-21  110.0000 2
953  4.432e-04  1.630e-02  4.121e-02 -4.992e-03 -1.030e-02 -2.486e-03  1.893e-08  1.893e-08  1.201e-09  1.114e-09    0.2819   -0.4648    0.1217    0.7048   -0.1078  2.519e-02    3.1416    3.1416 -1.662e-21 -3.291e-20    3.1416 -1.662e-21  110.0000 2
954  1.629e-02 -3.680e-03 -2.379e-03 -2.478e-03 -7.185e-03  1.517e-02  2.061e-08  1.902e-08  1.063e-09  1.015e-09 -3.721e-02    0.3328    0.4446    0.3666   -0.1371   -0.1557    3.1416    3.1416  1.024e-19 -9.145e-21    3.1416  1.024e-19  110.0000 2
955 -3.928e-02  1.331e-02  5.323e-03  1.665e-02  2.148e-02  7.847e-04  2.047e-08  1.930e-08  1.151e-09  9.623e-10   -0.6387  4.902e-02    0.2417   -0.4802 -8.316e-02   -0.1724    3.1416    3.1416 -6.216e-23  2.648e-24    3.1416 -6.216e-23  110.0000 2
956 -1.620e-02  5.400e-03  4.758e-03 -3.593e-03 -1.149e-02 -2.167e-02  1.860e-08  2.122e-08  1.022e-09  8.929e-10 -7.327e-02   -0.6637    0.3506   -0.2557 -2.631e-02  3.579e-02    3.1416    3.1416  7.386e-20 -3.851e-21    3.1416  7.386e-20  110.0000 2
957 -1.193e-02  1.662e-02 -2.006e-02 -1.846e-02  1.910e-04  8.739e-03  2.272e-08  2.382e-08  8.662e-10  1.228e-09    0.5279   -0.1671    0.1094   -0.4024 -5.623e-02    0.2043    3.1416    3.1416  3.907e-18 -1.362e-19    0.6819  3.907e-18  110.0000 2
958 -4.801e-03  3.917e-03 -4.244e-03  3.208e-03  1.118e-02  1.941e-02  2.308e-08  2.055e-08  1.072e-09  8.848e-10   -0.5731   -0.3663   -0.1761   -0.2523  6.091e-02   -0.3237    3.1416    3.1416 -3.330e-21 -3.873e-25    3.1416 -3.330e-21  110.0000 2
959  1.792e-02 -1.765e-04 -1.742e-02 -2.269e-02 -1.462e-02 -1.304e-03  2.168e-08  2.579e-08  9.817e-10  1.080e-09    0.2036   -0.6158    0.1654    0.3076   -0.3099    0.2366    3.1416    3.1416 -2.089e-21 -1.472e-22    0.8759 -2.089e-21  110.0000 2
960  7.270e-03 -4.893e-03 -1.492e-02 -1.202e-02  1.043e-02  1.676e-02  2.253e-08  2.444e-08  9.389e-10  9.772e-10   -0.1053    0.6118    0.3321   -0.1778    0.2948   -0.6884    3.1416    3.1416  3.580e-17 -1.168e-21    3.1416  3.580e-17  110.0000 2
961  1.385e-02  5.847e-03 -3.867e-03 -1.358e-02  5.121e-03  9.184e-03  1.707e-08  2.341e-08  8.802e-10  1.031e-09   -0.1599   -0.4269   -0.1846    0.5672    0.3276   -0.2450    3.1416    3.1416 -7.660e-23  1.256e-21    3.1416 -7.660e-23  110.0000 2
962  1.147e-02  2.950e-02  1.916e-03 -4.220e-03 -3.119e-02  1.007e-02  2.242e-08  2.693e-08  1.017e-09  1.034e-09   -0.2073 -9.677e-05   -0.2209  3.546e-02   -0.1849  9.640e-02    3.1416    3.1416  4.252e-20  8.072e-23    0.8835  4.252e-20  110.0000 2
963  6.895e-04 -1.144e-02  7.098e-03 -4.495e-03 -6.569e-04 -1.490e-02  2.148e-08  2.265e-08  1.107e-09  8.417e-10    0.7058    0.4830   -0.1131    0.3741 -1.534e-02   -0.4566    3.1416    3.1416  1.004e-20  6.567e-26    3.1416  1.004e-20  110.0000 2
964 -2.030e-02 -1.737e-02 -1.443e-02 -1.241e-02 -1.036e-02  1.308e-02  1.971e-08  2.417e-08  1.001e-09  8.972e-10    0.6737    0.1838    0.3375    0.1621    0.6377   -0.2031    3.1416    3.1416 -3.682e-21  4.481e-20    3.1416 -3.682e-21  110.0000 2
965  9.255e-03 -8.517e-03 -2.176e-02  3.569e-02  1.097e-03  3.062e-02  2.172e-08  2.475e-08  1.075e-09  1.079e-09   -0.1477   -0.2022  3.536e-03    0.2726    0.4968   -0.2278    3.1416    3.1416 -2.483e-19  3.294e-24    3.1416 -2.483e-19  110.0000 2
966  2.275e-03  4.377e-03 -1.084e-03 -7.337e-03  2.198e-02  1.318e-02  2.457e-08  2.516e-08  1.023e-09  1.078e-09   -0.5061 -7.257e-02    0.2968    0.1135   -0.4659   -0.1873    3.1416    3.1416 -1.982e-21 -1.120e-22    0.7375 -1.982e-21  110.0000 2
967 -7.717e-03 -1.344e-02  1.925e-02  3.249e-03 -7.101e-03 -4.825e-02  2.128e-08  2.447e-08  7.610e-10  1.036e-09   -0.3573    0.1020  3.737e-02    0.1795   -0.2317 -4.597e-02    3.1416    3.1416  2.899e-20  3.851e-17    3.1416  2.899e-20  110.0000 2
968 -2.249e-02  4.468e-03 -6.906e-03  1.165e-02  4.016e-03  3.634e-03  2.041e-08  1.960e-08  1.085e-09  9.802e-10   -0.3808    0.2883   -0.2402    0.1898 -4.492e-03    0.1000    3.1416    3.1416  2.248e-18 -9.467e-23    3.1416  2.248e-18  110.0000 2
969 -7.850e-03 -2.354e-02  2.414e-03  5.367e-03  4.702e-03 -6.264e-03  2.525e-08  2.090e-08  1.152e-09  1.047e-09   -0.2177   -0.8158   -0.2012   -0.4443   -0.1872    0.2636    3.1416    3.1416  5.182e-22    0.    3.1416  5.182e-22  110.0000 2
970 -1.167e-02  1.301e-02  1.801e-02  3.799e-02 -1.328e-02  2.346e-02  1.847e-08  2.638e-08  1.140e-09  9.498e-10   -0.5100    0.1505 -2.984e-02    0.2849    0.6485    0.4716    3.1416    3.1416  3.588e-21 -1.869e-25    3.1416  3.588e-21  110.0000 2
971  6.835e-03 -4.284e-02 -1.422e-02  2.465e-03 -2.256e-02 -4.471e-03  1.948e-08  2.519e-08  1.072e-09  1.116e-09   -0.5986    0.1382    0.2672   -0.5089   -0.1229    0.1889    3.1416    3.1416  5.178e-21  4.876e-17    3.1416  5.178e-21  110.0000 2
972 -1.481e-03  7.117e-03 -2.520e-02 -1.243e-02  1.147e-02  1.032e-02  2.336e-08  2.078e-08  1.023e-09  9.559e-10   -0.2079   -0.3192   -0.1464   -0.2791   -0.1994  5.712e-02    3.1416    3.1416  4.392e-20 -3.375e-21    3.1416  4.392e-20  110.0000 2
973  2.122e-03  2.175e-03 -3.030e-02 -5.475e-03  6.871e-03  2.867e-03  2.123e-08  2.341e-08  9.824e-10  1.131e-09   -0.2004 -2.763e-02   -0.1054  5.689e-03    0.1387   -0.1841    3.1416    3.1416  5.413e-19 -1.281e-23    3.1416  5.413e-19  110.0000 2
974 -1.158e-02  1.796e-02  1.542e-03 -4.683e-04 -2.647e-02 -8.155e-03  2.178e-08  2.162e-08  1.043e-09  9.506e-10   -0.4901    0.1305   -0.4513  2.715e-02    0.1630    0.1508    3.1416    3.1416 -2.260e-21 -2.327e-23    3.1416 -2.260e-21  110.0000 2
975  2.576e-02  2.476e-02  2.384e-02  1.335e-02  6.773e-03  1.133e-02  1.759e-08  2.007e-08  1.039e-09  1.101e-09 -7.076e-03    0.2494   -0.2858 -2.593e-02    0.2652 -3.845e-02    3.1416    3.1416 -2.100e-18 -8.216e-21    3.1416 -2.100e-18  110.0000 2
976 -3.815e-02  1.931e-02 -7.820e-03  3.194e-03 -4.173e-03  1.657e-02  2.658e-08  2.245e-08  9.025e-10  8.305e-10   -0.1524   -0.7042 -4.492e-02   -0.1450   -0.2464    0.5300    3.1416    3.1416 -1.479e-20 -1.575e-23    3.1416 -1.479e-20  110.0000 2
977  1.726e-04 -2.471e-02 -5.251e-04  7.368e-04  2.035e-03  6.499e-03  1.908e-08  2.369e-08  1.018e-09  1.173e-09    0.5907   -0.5857    0.4107   -0.3986   -0.1076    0.6822    3.1416    3.1416  1.743e-19 -9.607e-22    3.1416  1.743e-19  110.0000 2
978  2.352e-03 -2.656e-02  5.140e-03 -1.647e-02 -1.902e-02  1.392e-02  1.912e-08  2.392e-08  7.287e-10  9.769e-10   -0.3402   -0.2182    0.1196   -0.3199    0.2908    0.3262    3.1416    3.1416 -4.200e-21 -7.631e-21    3.1416 -4.200e-21  110.0000 2
979 -1.653e-02  1.210e-03 -2.406e-02  1.470e-02 -1.373e-02  2.931e-04  2.134e-08  1.841e-08  1.089e-09  8.843e-10   -0.5398 -4.063e-02    0.3232    0.5707    0.3577   -0.2175    3.1416    3.1416 -7.341e-18  3.290e-22    3.1416 -7.341e-18  110.0000 2
980  1.873e-03 -1.783e-02 -4.763e-02 -8.665e-03  4.935e-03  1.396e-02  1.993e-08  2.304e-08  1.035e-09  1.103e-09   -0.3856   -0.4397   -0.4190   -0.4746  4.257e-02   -0.2776    3.1416    3.1416 -4.616e-25  3.513e-21    3.1416 -4.616e-25  110.0000 2
981 -2.799e-02 -1.838e-02  2.855e-02 -2.362e-02 -2.000e-02  9.916e-03  2.125e-08  2.112e-08  9.370e-10  9.087e-10    0.3928    0.1314   -0.4883   -0.1192   -0.5684    0.1698    3.1416    3.1416  6.277e-17 -3.289e-21    3.1416  6.277e-17  110.0000 2
982 -1.216e-02  6.931e-03  3.434e-02  1.219e-02 -6.388e-03 -1.767e-02  2.388e-08  2.089e-08  8.311e-10  9.669e-10   -0.3327 -6.273e-02  6.495e-02 -6.806e-03   -0.3057    0.1418    3.1416    3.1416  1.760e-17 -2.860e-24    3.1416  1.760e-17  110.0000 2
983 -5.509e-03 -1.029e-02 -3.500e-02  1.975e-02 -3.601e-02 -6.851e-03  2.727e-08  2.449e-08  8.747e-10  8.302e-10   -0.7234   -0.2631  2.822e-02    0.3677    0.3479    0.2658    3.1416    3.1416 -1.232e-21 -3.927e-16    3.1416 -1.232e-21  110.0000 2
984 -4.085e-04 -1.656e-02  2.573e-03  5.779e-03 -3.288e-02  1.026e-02  2.136e-08  1.937e-08  9.469e-10  1.010e-09    0.3006    0.5216   -0.1962   -0.2259  1.379e-02   -0.3952    3.1416    3.1416  1.528e-18  2.900e-24    3.1416  1.528e-18  110.0000 2
985  3.115e-02  2.344e-02 -8.264e-03  2.708e-02  1.826e-02 -1.482e-03  1.765e-08  1.576e-08  9.426e-10  9.588e-10 -5.520e-02 -3.668e-02 -5.017e-02   -0.5535    0.1659    0.1932    3.1416    3.1416 -1.972e-20 -1.214e-21    3.1416 -1.972e-20  110.0000 2
986 -4.721e-02 -2.628e-02 -2.632e-02  5.893e-03  8.043e-03 -1.219e-02  1.983e-08  1.924e-08  9.602e-10  1.102e-09    0.5227    0.2706   -0.2095   -0.1568    0.3018 -5.148e-02    3.1416    3.1416 -1.976e-19  1.906e-23    3.1416 -1.976e-19  110.0000 2
987  1.946e-02  8.752e-03  9.338e-05 -1.494e-02 -2.073e-02 -1.705e-02  2.217e-08  2.165e-08  1.230e-09  1.053e-09   -0.1828    0.5862   -0.1370    0.3360   -0.2622   -0.1338    3.1416    3.1416 -2.218e-20    0.    3.1416 -2.218e-20  110.0000 2
988  3.001e-04  1.969e-02  2.108e-02 -1.365e-02  2.473e-02 -1.393e-02  2.127e-08  2.447e-08  1.021e-09  9.419e-10   -0.3587   -0.2258   -0.2037    0.2798   -0.1222    0.4762    3.1416    3.1416  6.644e-22  2.621e-24    3.1416  6.644e-22  110.0000 2
989  1.156e-02  3.201e-02  1.522e-02  2.011e-02  4.163e-03  1.605e-02  2.532e-08  2.549e-08  7.261e-10  9.384e-10   -0.3287 -7.985e-02    0.2444 -7.594e-02    0.2215 -7.583e-02    3.1416    3.1416  1.538e-17 -9.134e-21    0.7510  1.538e-17  110.0000 2
990  2.492e-04 -7.841e-03 -2.920e-03  7.940e-03 -9.315e-03  5.598e-03  2.180e-08  1.903e-08  1.165e-09  9.845e-10 -9.571e-02 -8.713e-03   -0.5960    0.1182  4.320e-02    0.2112    3.1416    3.1416 -1.096e-20  3.671e-25    3.1416 -1.096e-20  110.0000 2
991  1.428e-02 -2.810e-02 -8.698e-03  1.253e-02  8.714e-04  1.625e-02  2.575e-08  2.231e-08  1.074e-09  9.869e-10 -3.178e-02   -0.4184   -0.3920   -0.1136   -0.4019   -0.5477    3.1416    3.1416  5.884e-19    0.    3.1416  5.884e-19  110.0000 2
992  1.075e-02 -8.187e-03 -1.324e-04  3.357e-03 -4.506e-03  1.754e-02  2.024e-08  2.203e-08  9.082e-10  1.018e-09 -1.681e-02    0.1286    0.1605   -0.3259   -0.4379  1.028e-02    3.1416    3.1416  2.089e-23 -1.061e-20    3.1416  2.089e-23  110.0000 2
993 -1.204e-02  4.093e-03  8.262e-03  5.498e-03 -1.059e-02 -1.162e-02  2.082e-08  1.990e-08  8.822e-10  1.083e-09    0.2491   -0.1744    0.1981    0.4811    0.2284   -0.2638    3.1416    3.1416 -6.223e-22 -3.720e-23    3.1416 -6.223e-22  110.0000 2
994  2.584e-02  1.343e-03  5.540e-03 -1.431e-02  9.434e-03  1.190e-03  1.857e-08  2.087e-08  1.077e-09  1.090e-09   -0.2959   -0.3566 -7.371e-02   -0.2961    0.4854    0.1024    3.1416    3.1416  2.483e-19  2.491e-23    3.1416  2.483e-19  110.0000 2
995  1.657e-02 -2.475e-03 -6.830e-03  2.796e-03 -6.883e-03  1.070e-03  2.049e-08  2.165e-08  9.858e-10  8.343e-10    0.2844    0.2975   -0.7514   -0.2637 -4.227e-02   -0.1723    3.1416    3.1416  4.871e-19  3.311e-24    3.1416  4.871e-19  110.0000 2
996 -1.185e-02 -1.832e-03  7.342e-03  1.369e-02 -1.472e-02  9.229e-03  2.301e-08  2.002e-08  9.938e-10  1.114e-09  2.598e-03    0.4651   -0.2038   -0.2920   -0.1278   -0.6585    3.1416    3.1416  1.222e-20 -8.726e-21    3.1416  1.222e-20  110.0000 2
997 -1.865e-02  1.533e-02  2.584e-02  3.006e-02 -1.330e-02 -3.185e-02  2.307e-08  2.042e-08  1.018e-09  9.855e-10    0.3861   -0.1499    0.5780    0.6746   -0.6551   -0.3242    3.1416    3.1416  9.286e-19 -6.517e-26    3.1416  9.286e-19  110.0000 2
998  9.296e-03  9.744e-03  5.227e-03  6.627e-03 -3.381e-02 -2.191e-02  2.015e-08  2.113e-08  1.096e-09  1.004e-09   -0.2951    0.1206    0.5752  3.219e-02 -7.856e-02 -1.888e-02    3.1416    3.1416  5.150e-17 -1.774e-23    3.1416  5.150e-17  110.0000 2
999 -2.243e-02 -3.183e-02 -1.394e-02  3.457e-03 -9.264e-03  1.091e-02  2.307e-08  2.309e-08  1.035e-09  1.058e-09   -0.8429   -0.5922 -8.559e-02  1.954e-02  8.996e-02   -0.1295    3.1416    3.1416 -3.017e-21 -7.805e-25    3.1416 -3.017e-21  110.0000 2
1000 -4.249e-02  1.427e-02  8.628e-03 -3.429e-03 -1.045e-02 -2.280e-02  2.393e-08  1.841e-08  1.092e-09  1.141e-09    0.1381    0.2236   -0.6293   -0.1231    0.4278    0.5811    3.1416    3.1416 -2.842e-20 -6.338e-26    3.1416 -2.842e-20  110.0000 2
