$DATA1 SOURCE='HSPICE' VERSION='I-2013.12-SP1-1 32-BIT'
$OPTION MEASFORM=1
.TITLE '****summer 2017 necrl stt latch wite path monte carlo analysis****'
index 1:vdvtn@dvtn_intra 5:vdvtn@dvtn_intra 2:vdvtn@dvtn_intra 3:vdvtp@dvtp_intra 6:vdvtp@dvtp_intra 4:vdvtp@dvtp_intra 7:r1@dr_intra 8:r1@dr_intra 7:tox1@dt_intra 8:tox1@dt_intra 9:mc_cnr_rnd@9:mc_cnr_round 10:mc_cnr_rnd@10:mc_cnr_round 11:mc_cnr_rnd@11:mc_cnr_round 12:mc_cnr_rnd@12:mc_cnr_round 13:mc_cnr_rnd@13:mc_cnr_round 14:mc_cnr_rnd@14:mc_cnr_round ntrh ntdh1 ntrl1 ntdl ntdh2 ntrl2 temper alter#
1  2.085e-02  2.884e-03  4.037e-03  1.010e-02  2.414e-03  1.732e-02  2.301e-08  2.169e-08  8.941e-10  1.016e-09   -0.3526    0.2628   -0.4049    0.3717    0.3675   -0.3516    3.1416    3.1416  1.402e-18  3.175e-20    3.1416  1.402e-18  110.0000 1
2 -6.026e-03 -3.397e-02 -1.221e-02  2.291e-02 -1.668e-02  4.093e-03  1.995e-08  2.265e-08  1.064e-09  1.047e-09   -0.1130   -0.7910 -9.180e-03    0.4226    0.1816   -0.3755    3.1416    3.1416 -2.426e-20  1.383e-21    3.1416 -2.426e-20  110.0000 1
3 -4.367e-03 -1.888e-02  1.752e-02 -5.503e-03 -1.991e-02 -1.437e-02  2.210e-08  2.146e-08  1.049e-09  1.028e-09    0.2688 -8.206e-02   -0.7323 -7.671e-02    0.6821 -5.626e-02    3.1416    3.1416 -1.992e-20 -3.174e-21    3.1416 -1.992e-20  110.0000 1
4  2.586e-02 -1.604e-02 -1.936e-03  2.711e-02  3.546e-04 -3.213e-03  2.151e-08  2.110e-08  1.185e-09  9.215e-10   -0.2869    0.1682 -6.765e-02   -0.2085   -0.2451    0.1329    3.1416    3.1416  4.588e-17  3.880e-27    3.1416  4.588e-17  110.0000 1
5  3.318e-02 -7.484e-03  8.147e-04  1.181e-02 -3.311e-03  2.177e-03  2.542e-08  1.686e-08  8.785e-10  8.717e-10    0.3681   -0.6111   -0.3695    0.5093    0.2121   -0.1991    3.1416    3.1416 -1.470e-18 -6.413e-24    3.1416 -1.470e-18  110.0000 1
6 -6.167e-03 -1.054e-02 -2.634e-02  1.014e-02  3.360e-02  5.078e-03  2.021e-08  2.180e-08  1.108e-09  1.120e-09   -0.1321    0.2474    0.3204    0.3523  6.447e-02 -6.158e-02    3.1416    3.1416 -8.393e-20 -3.741e-24    3.1416 -8.393e-20  110.0000 1
7 -3.905e-03  1.725e-02  2.083e-02 -2.073e-03 -3.392e-02  5.019e-03  1.931e-08  2.219e-08  9.813e-10  9.846e-10    0.1698    0.6836    0.1004  7.329e-02    0.1979 -4.963e-03    3.1416    3.1416 -4.894e-21 -2.697e-24    3.1416 -4.894e-21  110.0000 1
8  1.090e-02  7.464e-03  5.102e-03  9.849e-03 -1.347e-02 -1.088e-03  2.135e-08  2.017e-08  1.130e-09  1.267e-09  1.803e-02 -9.349e-02  5.797e-02    0.1469    0.1146  3.341e-03    3.1416    3.1416 -8.085e-22  2.623e-24    3.1416 -8.085e-22  110.0000 1
9  3.018e-02  8.197e-04  1.691e-02 -2.354e-03 -8.111e-03  2.069e-02  2.038e-08  2.660e-08  1.098e-09  8.922e-10   -0.2584  7.273e-02    0.1671 -5.645e-03   -0.2195    0.2950    3.1416    3.1416  3.971e-18  1.106e-25    3.1416  3.971e-18  110.0000 1
10  7.194e-03 -3.805e-03  2.280e-02  6.407e-03 -1.490e-02  1.916e-02  2.280e-08  1.864e-08  1.036e-09  8.545e-10  3.720e-02 -1.236e-02  9.200e-02   -0.2633    0.6758    0.2785    3.1416    3.1416 -1.920e-20  1.888e-20    3.1416 -1.920e-20  110.0000 1
11  1.772e-02 -3.788e-02 -8.748e-04 -2.888e-02  2.070e-02  1.933e-02  2.166e-08  2.094e-08  9.786e-10  1.172e-09    0.4163   -0.4174   -0.2350    0.3212    0.5580    0.4815    3.1416    3.1416  4.375e-20  4.787e-22    3.1416  4.375e-20  110.0000 1
12 -2.037e-02 -4.387e-03  1.879e-02 -2.921e-02  7.524e-03  2.843e-02  2.571e-08  1.776e-08  1.047e-09  9.213e-10    0.1907   -0.2157   -0.6731  7.316e-02 -3.811e-02   -0.2444    3.1416    3.1416 -3.954e-20  8.443e-26    3.1416 -3.954e-20  110.0000 1
13  6.985e-03  4.558e-03 -2.421e-02  2.126e-02  1.263e-02  1.616e-02  2.492e-08  2.620e-08  1.089e-09  9.703e-10  9.671e-02   -0.4450  6.241e-02    0.2124    0.2028    0.1667    3.1416    3.1416  2.138e-19    0.    3.1416  2.138e-19  110.0000 1
14 -1.958e-02  1.563e-02 -6.545e-03 -1.870e-02  2.537e-02 -2.272e-02  2.317e-08  2.210e-08  1.088e-09  9.816e-10  1.388e-02    0.3066  2.018e-02 -4.870e-03    0.1916   -0.2676    3.1416    3.1416 -1.142e-21  4.430e-24    3.1416 -1.142e-21  110.0000 1
15 -1.739e-02 -2.266e-02 -8.240e-03 -1.770e-02 -1.408e-02  9.577e-03  2.127e-08  2.397e-08  8.760e-10  7.923e-10 -8.763e-03   -0.2326    0.3242    0.1709   -0.4857    0.3591    3.1416    3.1416 -4.104e-22 -1.097e-20    3.1416 -4.104e-22  110.0000 1
16  3.988e-03 -5.737e-03  1.066e-02  1.509e-02 -1.923e-03  1.414e-02  2.345e-08  2.348e-08  8.485e-10  1.020e-09   -0.5017  1.368e-02    0.1374   -0.1912    0.1290    0.2282    3.1416    3.1416  4.096e-22  1.571e-20    3.1416  4.096e-22  110.0000 1
17 -1.989e-02  3.563e-02  2.619e-02  3.387e-04  2.189e-02 -1.235e-02  1.956e-08  2.325e-08  1.086e-09  1.088e-09   -0.1248   -0.6080  4.051e-02    0.3724   -0.8328    0.1854    3.1416    3.1416 -1.933e-21 -1.212e-21    3.1416 -1.933e-21  110.0000 1
18  1.290e-02 -1.279e-02 -1.768e-03 -1.495e-02 -9.881e-03  1.755e-02  2.081e-08  2.350e-08  9.773e-10  1.241e-09    0.3227   -0.1603   -0.6670    0.3657    0.2637   -0.3926    3.1416    3.1416  3.157e-20  2.302e-23    3.1416  3.157e-20  110.0000 1
19 -2.568e-02  5.700e-03 -1.547e-03  1.931e-02 -5.470e-03 -4.899e-03  2.084e-08  2.778e-08  9.057e-10  1.000e-09   -0.1792   -0.1877    0.1971    0.4250    0.2160   -0.1465    3.1416    3.1416  3.177e-19  2.439e-20    3.1416  3.177e-19  110.0000 1
20  1.517e-02 -3.737e-02 -2.350e-02 -4.881e-03  2.486e-04  1.382e-02  2.433e-08  2.298e-08  1.008e-09  1.023e-09    0.1880  4.067e-02   -0.1912    0.2573    0.6929   -0.3331    3.1416    3.1416  4.255e-21 -8.575e-21    3.1416  4.255e-21  110.0000 1
21 -2.568e-02  1.408e-02 -1.065e-02  2.077e-04 -8.233e-04  3.484e-02  2.238e-08  2.180e-08  1.034e-09  9.164e-10   -0.4696 -3.771e-02    0.1096 -5.580e-02    0.3861  6.236e-02    3.1416    3.1416  1.106e-20  3.097e-24    3.1416  1.106e-20  110.0000 1
22  6.645e-03  1.365e-02  3.730e-03 -1.523e-03  1.591e-02  1.185e-02  2.543e-08  2.288e-08  1.093e-09  1.046e-09    0.4225   -0.1649   -0.2095   -0.2523 -8.417e-02   -0.3726    3.1416    3.1416 -2.776e-19    0.    3.1416 -2.776e-19  110.0000 1
23 -2.229e-03 -3.371e-02  4.525e-03  1.036e-02  4.319e-03  1.797e-02  2.572e-08  2.138e-08  8.492e-10  8.609e-10   -0.1009   -0.2245 -7.233e-02   -0.1575    0.1029   -0.1093    3.1416    3.1416  7.994e-22  7.476e-27    3.1416  7.994e-22  110.0000 1
24  4.778e-03  2.792e-02 -1.223e-02  7.569e-03  1.088e-02  1.477e-02  1.856e-08  2.195e-08  1.109e-09  1.254e-09 -3.658e-02  5.165e-02   -0.5738    0.2306    0.8243  2.834e-02    3.1416    3.1416  1.767e-19 -4.861e-23    3.1416  1.767e-19  110.0000 1
25 -2.662e-02 -2.558e-02 -1.831e-02  1.321e-03  6.652e-03 -2.341e-02  2.276e-08  2.308e-08  9.061e-10  9.327e-10    0.3393   -0.1561   -0.3646   -0.4689 -2.103e-02 -3.085e-02    3.1416    3.1416 -1.726e-18 -2.688e-23    3.1416 -1.726e-18  110.0000 1
26 -4.114e-03  1.605e-02  9.296e-04  5.813e-03 -3.763e-03  7.294e-03  1.988e-08  2.241e-08  1.265e-09  1.042e-09   -0.3058    0.4492   -0.2109   -0.1802    0.4267   -0.1932    3.1416    3.1416 -2.743e-22  6.369e-25    3.1416 -2.743e-22  110.0000 1
27  8.526e-03  2.503e-02  1.157e-02 -2.423e-03  1.093e-02  9.580e-03  1.722e-08  2.083e-08  9.310e-10  9.532e-10    0.1645  8.786e-02    0.2174    0.2592 -5.948e-02    0.1504    3.1416    3.1416  5.078e-17 -2.316e-20    3.1416  5.078e-17  110.0000 1
28 -1.766e-02 -3.542e-03 -1.320e-02  1.978e-02 -7.293e-03 -8.636e-03  1.978e-08  2.023e-08  7.511e-10  9.505e-10    0.1704  3.829e-02 -1.228e-02   -0.3567   -0.1320   -0.1949    3.1416    3.1416  1.155e-18 -1.976e-21    3.1416  1.155e-18  110.0000 1
29 -2.940e-02 -3.249e-03 -3.854e-03  8.439e-04  1.553e-02 -4.672e-03  2.321e-08  2.356e-08  1.069e-09  8.872e-10 -2.803e-02 -9.397e-02    0.2760    0.1219    0.1379 -3.095e-02    3.1416    3.1416  1.659e-19  7.291e-28    3.1416  1.659e-19  110.0000 1
30 -1.013e-02  6.801e-03  2.857e-03  3.156e-02  7.831e-03  4.815e-03  2.102e-08  2.351e-08  9.368e-10  9.213e-10    0.1405   -0.3064    0.3957   -0.5407   -0.4298   -0.1291    3.1416    3.1416 -1.187e-17 -1.791e-20    3.1416 -1.187e-17  110.0000 1
31  1.623e-02 -4.885e-02  7.218e-03  5.136e-03 -5.229e-03  3.005e-02  2.155e-08  2.048e-08  1.078e-09  8.836e-10   -0.1833   -0.6812 -2.529e-04    0.5461    0.2095   -0.1190    3.1416    3.1416  5.691e-17 -4.357e-24    3.1416  5.691e-17  110.0000 1
32 -1.410e-02 -1.046e-03  2.369e-03 -9.613e-03  5.397e-03  3.709e-02  1.911e-08  2.050e-08  1.103e-09  1.223e-09    0.4183   -0.5379   -0.1465   -0.1522    0.1874 -7.633e-03    3.1416    3.1416 -2.484e-21 -4.794e-22    3.1416 -2.484e-21  110.0000 1
33 -1.975e-02 -1.641e-02 -2.927e-02  1.560e-02 -2.715e-03  4.557e-02  2.432e-08  1.816e-08  1.031e-09  9.379e-10   -0.1389    0.1730    0.1758   -0.4213   -0.2198   -0.2475    3.1416    3.1416  5.433e-17  4.791e-24    3.1416  5.433e-17  110.0000 1
34  2.385e-03 -3.796e-03  2.480e-02  2.109e-02 -3.663e-03  8.952e-03  1.604e-08  2.227e-08  1.012e-09  9.097e-10   -0.1521    0.2785   -0.2018    0.2692 -9.511e-02    0.2765    3.1416    3.1416 -5.231e-17 -5.262e-21    3.1416 -5.231e-17  110.0000 1
35  3.622e-02  6.917e-03 -1.655e-02 -4.102e-03 -2.393e-02  2.204e-02  2.449e-08  1.950e-08  1.110e-09  1.002e-09    0.2535  3.840e-02 -7.630e-02   -0.1249    0.6406  7.392e-02    3.1416    3.1416  2.102e-19 -6.270e-28    3.1416  2.102e-19  110.0000 1
36  1.045e-03 -1.293e-02 -1.826e-03 -6.976e-03  6.540e-04 -1.047e-02  2.476e-08  2.515e-08  1.209e-09  1.075e-09   -0.4684   -0.5522    0.1934    0.6261    0.3234    0.2766    0.7762    3.1416  1.270e-17    0.    3.1416  1.270e-17  110.0000 1
37  5.987e-03  1.174e-02 -2.494e-02  2.369e-02  1.020e-02  2.626e-03  2.162e-08  2.514e-08  1.071e-09  9.292e-10   -0.4749    0.4721    0.2692   -0.2080   -0.2277    0.2263    3.1416    3.1416 -4.712e-19  2.977e-26    3.1416 -4.712e-19  110.0000 1
38  3.432e-03 -3.471e-02 -2.469e-02 -1.549e-02  2.753e-02 -1.027e-03  2.396e-08  2.551e-08  9.054e-10  7.977e-10   -0.1403    0.1598   -0.3664 -8.846e-02   -0.2020   -0.3851    3.1416    3.1416  7.474e-20 -8.619e-21    3.1416  7.474e-20  110.0000 1
39 -8.066e-03  7.211e-04  3.469e-03  4.429e-05  2.360e-03  1.942e-02  2.379e-08  2.352e-08  1.126e-09  1.145e-09    0.3128    0.5050    0.2449    0.5305    0.1017    0.5916    3.1416    3.1416 -8.185e-20    0.    3.1416 -8.185e-20  110.0000 1
40 -2.948e-03  8.962e-03  3.438e-03 -2.901e-04  1.511e-02 -1.565e-02  2.259e-08  1.936e-08  1.035e-09  1.168e-09 -1.081e-02   -0.6546    0.6360    0.3567    0.1822    0.6395    3.1416    3.1416 -3.743e-19 -6.236e-20    3.1416 -3.743e-19  110.0000 1
41  1.602e-03 -1.645e-02  2.355e-02  6.710e-03 -3.194e-02  3.647e-04  2.111e-08  2.117e-08  1.026e-09  9.554e-10   -0.6446 -5.792e-03   -0.2689   -0.2620  4.796e-02   -0.4516    3.1416    3.1416  5.070e-21 -5.644e-21    3.1416  5.070e-21  110.0000 1
42 -7.791e-03 -1.462e-02  3.254e-02 -1.649e-02  1.506e-02 -9.736e-03  1.988e-08  2.241e-08  1.109e-09  8.448e-10    0.4436    0.1699    0.8609    0.4710    0.3386    0.2445    3.1416    3.1416 -2.922e-16 -3.795e-24    3.1416 -2.922e-16  110.0000 1
43 -1.091e-02 -9.538e-03  2.422e-02  2.345e-02  1.301e-03  6.163e-03  2.069e-08  2.352e-08  1.124e-09  1.092e-09 -9.423e-02 -5.424e-02  6.117e-02 -6.132e-02    0.2238  4.152e-03    3.1416    3.1416  9.512e-20  3.275e-25    3.1416  9.512e-20  110.0000 1
44  8.888e-04 -9.205e-03 -5.152e-04 -2.112e-02  6.168e-03  5.525e-03  2.559e-08  2.066e-08  9.629e-10  8.798e-10   -0.2720    0.4222   -0.5476   -0.4791   -0.2601  3.762e-02    3.1416    3.1416 -3.539e-20 -1.929e-24    3.1416 -3.539e-20  110.0000 1
45 -3.979e-03  6.585e-03  6.940e-03  5.825e-03 -7.931e-03 -3.608e-02  1.922e-08  2.671e-08  8.708e-10  1.190e-09    0.1211    0.3125   -0.2556   -0.3661    0.3654   -0.2323    3.1416    3.1416  3.776e-20 -2.694e-22    0.8058  3.776e-20  110.0000 1
46 -1.934e-02  2.653e-02 -1.215e-02 -3.309e-03  5.847e-04  1.117e-02  2.035e-08  2.513e-08  1.147e-09  1.075e-09  9.157e-02   -0.2724   -0.2350 -6.273e-02    0.1167    0.3078    3.1416    3.1416  9.329e-20 -3.588e-25    3.1416  9.329e-20  110.0000 1
47  1.771e-04 -3.848e-03 -7.594e-03 -5.185e-03  3.590e-02  6.629e-03  2.307e-08  2.655e-08  1.095e-09  1.064e-09    0.1610    0.1150    0.1772  2.057e-02   -0.3147   -0.2633    3.1416    3.1416  4.665e-18 -3.020e-27    3.1416  4.665e-18  110.0000 1
48 -5.362e-03 -2.723e-02 -5.907e-04 -6.649e-03 -1.925e-03  1.448e-02  1.645e-08  2.139e-08  9.621e-10  1.152e-09 -3.266e-03   -0.3010    0.3608    0.2638   -0.3286   -0.1233    3.1416    3.1416  1.630e-19  5.130e-20    3.1416  1.630e-19  110.0000 1
49  1.825e-02 -1.870e-03 -2.994e-02  2.061e-02 -1.972e-03  1.040e-02  2.289e-08  2.349e-08  1.070e-09  8.059e-10  9.401e-02    0.2882 -8.265e-02   -0.1410    0.2351   -0.2915    3.1416    3.1416  1.933e-19  3.573e-24    3.1416  1.933e-19  110.0000 1
50  2.992e-02 -1.183e-03 -1.647e-03  1.217e-02  8.075e-03  3.274e-03  1.882e-08  2.254e-08  9.016e-10  8.314e-10   -0.1531 -8.336e-02    0.1899   -0.1612  1.574e-02   -0.4390    3.1416    3.1416  3.962e-20 -1.480e-20    3.1416  3.962e-20  110.0000 1
51 -8.188e-03  1.144e-02 -1.357e-02  2.363e-02 -4.997e-03 -3.295e-03  2.036e-08  2.403e-08  1.060e-09  1.184e-09   -0.1799   -0.2786  7.316e-02    0.2580    0.1635    0.1400    3.1416    3.1416  2.083e-21 -1.823e-21    3.1416  2.083e-21  110.0000 1
52  1.402e-02 -3.695e-03  7.395e-04  9.712e-03 -2.000e-03  9.840e-03  2.073e-08  1.765e-08  8.652e-10  1.169e-09   -0.4423    0.1180  2.864e-02   -0.2017   -0.8011    0.1159    3.1416    3.1416 -2.012e-18 -4.017e-23    3.1416 -2.012e-18  110.0000 1
53  3.578e-04  3.238e-02  2.296e-02 -2.342e-03  3.689e-03  1.316e-02  2.064e-08  2.339e-08  8.826e-10  1.016e-09 -4.085e-02  9.731e-02  1.606e-02   -0.1916   -0.2867  2.385e-02    3.1416    3.1416  3.921e-21  1.855e-22    3.1416  3.921e-21  110.0000 1
54 -8.532e-05 -8.411e-03 -7.344e-03  2.035e-02 -4.578e-03 -5.961e-03  2.211e-08  1.985e-08  1.055e-09  1.076e-09 -2.101e-02   -0.2209    0.3588   -0.7334 -9.504e-03   -0.1887    3.1416    3.1416  1.328e-19 -3.077e-22    3.1416  1.328e-19  110.0000 1
55  8.846e-03  2.607e-03 -3.254e-03  4.538e-03 -6.594e-03  1.237e-02  2.401e-08  2.376e-08  1.021e-09  1.126e-09    0.1398   -0.6714   -0.2735    0.2217  2.950e-02   -0.4059    3.1416    3.1416  2.461e-17  6.096e-25    3.1416  2.461e-17  110.0000 1
56  1.607e-02  2.293e-02  2.309e-02 -1.290e-02 -3.123e-03 -1.721e-03  1.954e-08  2.214e-08  1.025e-09  1.182e-09  6.517e-02 -9.655e-02    0.2333 -6.378e-02   -0.3610 -7.468e-02    3.1416    3.1416  2.579e-20 -5.776e-22    3.1416  2.579e-20  110.0000 1
57 -2.092e-02  1.340e-02  1.487e-02 -9.470e-03 -2.167e-02 -4.050e-02  2.151e-08  2.179e-08  9.386e-10  1.090e-09    0.1557   -0.1961 -6.823e-02   -0.1595    0.1231   -0.5028    3.1416    3.1416  2.736e-21 -7.915e-23    3.1416  2.736e-21  110.0000 1
58 -1.344e-02 -2.484e-04  2.088e-02 -1.130e-02  6.275e-03  7.402e-03  2.050e-08  2.524e-08  1.228e-09  8.140e-10    0.1525  3.321e-02   -0.1038   -0.7186   -0.4302   -0.4696    3.1416    3.1416 -1.154e-21    0.    3.1416 -1.154e-21  110.0000 1
59 -9.909e-03  3.060e-02  5.758e-03  1.475e-02 -7.496e-03 -1.322e-02  1.938e-08  2.362e-08  1.033e-09  9.291e-10  3.463e-02    0.3430    0.2333  9.343e-02  3.207e-02 -4.283e-02    3.1416    3.1416 -1.418e-20  6.439e-24    3.1416 -1.418e-20  110.0000 1
60  5.145e-03 -1.944e-02 -2.735e-02  1.279e-03  1.622e-02 -2.058e-02  2.058e-08  2.057e-08  9.171e-10  1.212e-09    0.5343    0.1797    0.3266   -0.2408    0.5903   -0.3043    3.1416    3.1416 -7.187e-21 -3.368e-21    3.1416 -7.187e-21  110.0000 1
61  5.542e-03 -1.469e-02 -8.380e-03  1.593e-03  2.744e-02 -2.417e-02  2.152e-08  2.155e-08  1.174e-09  9.296e-10   -0.1785   -0.1593    0.3258 -5.609e-02    0.3654   -0.1080    3.1416    3.1416  2.246e-22 -2.377e-23    3.1416  2.246e-22  110.0000 1
62 -1.299e-02 -3.172e-02  1.709e-02  1.058e-02  2.239e-02 -2.698e-02  2.392e-08  1.959e-08  9.301e-10  1.125e-09   -0.2588   -0.5548 -3.440e-02    0.4572   -0.1718    0.3882    3.1416    3.1416 -4.687e-22 -1.637e-22    3.1416 -4.687e-22  110.0000 1
63 -3.993e-02  1.206e-02 -4.595e-03 -2.757e-02 -2.164e-02 -8.842e-03  1.724e-08  2.711e-08  1.038e-09  9.710e-10    0.7243 -7.299e-02   -0.2487  1.362e-02    0.7251   -0.4599    3.1416    3.1416 -3.983e-22 -2.815e-19    3.1416 -3.983e-22  110.0000 1
64 -9.907e-03  2.033e-02  6.131e-03  5.912e-03 -2.928e-02 -4.734e-03  2.054e-08  2.203e-08  1.083e-09  1.006e-09    0.1606    0.1627   -0.4516    0.2707 -1.406e-02 -2.913e-02    3.1416    3.1416  2.619e-19 -4.716e-24    3.1416  2.619e-19  110.0000 1
65  1.728e-02 -1.435e-02 -1.144e-02 -5.816e-03 -3.421e-02  2.905e-02  2.010e-08  2.335e-08  9.363e-10  7.050e-10 -8.596e-02    0.2101  4.847e-02  4.206e-02 -1.721e-02   -0.5123    3.1416    3.1416 -4.668e-21  4.606e-23    3.1416 -4.668e-21  110.0000 1
66 -3.545e-03  1.144e-02 -1.183e-03  1.505e-02  1.519e-02  4.312e-03  2.130e-08  2.452e-08  7.816e-10  9.753e-10    0.4353   -0.1571    0.4496 -4.216e-02   -0.4760   -0.3550    3.1416    3.1416  4.147e-20  1.109e-22    3.1416  4.147e-20  110.0000 1
67 -7.609e-03  3.059e-02 -1.581e-02 -6.786e-03 -2.556e-02  1.348e-02  1.935e-08  2.469e-08  1.135e-09  8.838e-10   -0.1038  3.935e-02   -0.4522 -7.834e-03 -3.884e-02   -0.6875    3.1416    3.1416 -1.526e-17 -1.010e-26    3.1416 -1.526e-17  110.0000 1
68 -2.751e-02 -3.702e-02 -1.275e-02  2.007e-02  8.663e-03  1.885e-02  2.394e-08  2.204e-08  1.020e-09  1.020e-09  4.087e-02    0.2897   -0.2069  6.358e-02 -7.978e-02    0.1640    3.1416    3.1416  9.489e-18 -4.056e-25    3.1416  9.489e-18  110.0000 1
69  1.305e-02 -1.930e-02 -1.225e-03  9.910e-03  8.992e-03 -2.280e-02  2.335e-08  1.933e-08  1.101e-09  9.146e-10    0.4631 -7.164e-02   -0.1410  8.419e-02    0.3559   -0.3677    3.1416    3.1416 -8.364e-20 -2.794e-16    3.1416 -8.364e-20  110.0000 1
70 -4.011e-03 -6.605e-03 -5.743e-03 -2.930e-03 -1.769e-02  1.731e-02  1.981e-08  2.285e-08  1.063e-09  1.015e-09   -0.3158    0.2627  3.473e-02   -0.6896 -6.047e-02   -0.1570    3.1416    3.1416  1.124e-19  1.489e-26    3.1416  1.124e-19  110.0000 1
71 -5.762e-03 -1.330e-02  1.639e-03 -9.285e-03  5.868e-03 -1.530e-02  2.160e-08  1.978e-08  1.014e-09  9.080e-10   -0.5013 -8.370e-02 -1.808e-02   -0.5821   -0.1827   -0.3019    3.1416    3.1416 -5.414e-20 -4.553e-24    3.1416 -5.414e-20  110.0000 1
72  2.891e-02  1.808e-03 -3.464e-02  2.148e-02 -1.722e-02  7.411e-03  1.958e-08  2.090e-08  1.056e-09  1.045e-09    0.1328 -7.931e-02   -0.3442    0.3489  8.153e-05   -0.4509    3.1416    3.1416 -8.889e-22 -1.234e-22    3.1416 -8.889e-22  110.0000 1
73  5.494e-03  1.721e-03 -5.797e-03  5.275e-03 -3.608e-02  1.990e-02  2.163e-08  1.916e-08  9.059e-10  8.512e-10    0.3483    0.2573   -0.1233  2.474e-02   -0.3088    0.6532    3.1416    3.1416  1.411e-17 -1.302e-20    3.1416  1.411e-17  110.0000 1
74  5.105e-03 -1.946e-02 -6.080e-03  2.595e-03 -6.567e-04 -3.161e-02  2.377e-08  2.558e-08  1.148e-09  1.112e-09    0.2631   -0.4013  1.956e-02  3.728e-02    0.1550    0.4832    3.1416    3.1416  1.911e-20    0.    3.1416  1.911e-20  110.0000 1
75 -2.757e-02 -2.240e-02 -1.942e-02  5.239e-03 -1.935e-03 -1.872e-03  2.187e-08  2.147e-08  1.108e-09  1.204e-09    0.4446    0.2294  3.590e-03   -0.2870    0.2388 -4.507e-02    3.1416    3.1416  8.049e-20 -7.651e-24    3.1416  8.049e-20  110.0000 1
76 -1.235e-02 -1.548e-02  3.096e-02 -1.373e-02  3.076e-02  1.027e-02  2.490e-08  2.615e-08  9.957e-10  9.468e-10    0.2721 -1.185e-02   -0.1130   -0.6069   -0.1357    0.3658    3.1416    3.1416  1.176e-17 -2.711e-28    3.1416  1.176e-17  110.0000 1
77 -3.505e-02 -2.609e-02  9.538e-03  1.389e-02 -1.380e-02  1.911e-02  2.245e-08  2.087e-08  1.027e-09  8.951e-10    0.2827    0.1917    0.3534 -4.855e-02   -0.2926  1.012e-02    3.1416    3.1416  6.992e-21 -4.289e-22    3.1416  6.992e-21  110.0000 1
78 -1.121e-02 -2.915e-02 -1.244e-02 -2.177e-02  2.235e-02 -1.775e-02  2.315e-08  2.186e-08  9.897e-10  9.552e-10  7.031e-02   -0.3130    0.1241  2.962e-02    0.2863    0.1568    3.1416    3.1416  4.230e-23 -3.100e-22    3.1416  4.230e-23  110.0000 1
79 -3.879e-03  7.451e-03 -2.190e-03  5.415e-02 -2.937e-02  3.269e-04  2.749e-08  2.402e-08  9.032e-10  9.366e-10    0.1806    0.5641    0.7801 -2.207e-02   -0.5462   -0.1101    3.1416    3.1416  5.082e-20  2.249e-24    3.1416  5.082e-20  110.0000 1
80  8.174e-03 -2.058e-05 -1.704e-02  1.744e-02 -4.127e-04  6.049e-03  2.130e-08  2.033e-08  1.151e-09  1.070e-09    0.1971   -0.2843 -8.583e-02   -0.2056    0.4173    0.2453    3.1416    3.1416  7.128e-21 -7.703e-23    3.1416  7.128e-21  110.0000 1
81  1.299e-02 -6.115e-03  1.400e-02  5.215e-03 -2.603e-02 -2.337e-02  1.867e-08  2.503e-08  8.811e-10  1.052e-09   -0.1031    0.1370  9.140e-02   -0.3460    0.4127 -6.599e-02    3.1416    3.1416  5.125e-22  9.904e-23    3.1416  5.125e-22  110.0000 1
82 -1.133e-02 -1.824e-03  5.504e-04 -2.074e-02  9.649e-03  1.330e-02  2.105e-08  2.012e-08  9.842e-10  1.109e-09  8.392e-03   -0.3593   -0.3716   -0.2640 -9.923e-02 -1.264e-02    3.1416    3.1416  2.542e-17 -1.277e-22    3.1416  2.542e-17  110.0000 1
83  2.753e-03  1.562e-02 -1.486e-02  3.382e-02  2.397e-02  6.828e-03  2.089e-08  2.374e-08  1.154e-09  1.140e-09 -8.752e-02    0.4717   -0.1861   -0.1466 -3.365e-02   -0.3067    3.1416    3.1416  5.561e-19  1.575e-26    3.1416  5.561e-19  110.0000 1
84  3.295e-03  2.566e-03  5.830e-03  2.396e-02  8.782e-03 -6.783e-03  2.030e-08  1.823e-08  8.962e-10  9.592e-10    0.4139  8.761e-02    0.4478    0.1906   -0.3937   -0.4106    3.1416    3.1416  3.491e-19 -1.618e-22    3.1416  3.491e-19  110.0000 1
85  5.268e-03 -6.565e-03 -5.867e-03  1.074e-02 -1.188e-03 -2.565e-03  2.228e-08  2.341e-08  8.318e-10  8.835e-10 -1.796e-02   -0.1027   -0.2372  8.490e-02    0.2398   -0.4028    3.1416    3.1416  1.048e-19 -1.398e-22    3.1416  1.048e-19  110.0000 1
86 -1.649e-02  4.226e-03 -3.022e-02 -1.041e-03 -2.674e-02  9.600e-03  1.884e-08  2.358e-08  9.417e-10  1.043e-09 -1.029e-02   -0.1289   -0.2283    0.1348    0.1989    0.2688    3.1416    3.1416  8.211e-19 -1.851e-19    3.1416  8.211e-19  110.0000 1
87  1.967e-02 -8.536e-03 -2.397e-02  1.730e-02 -2.240e-02 -4.334e-03  2.429e-08  1.641e-08  1.110e-09  1.009e-09    0.3561  6.891e-03   -0.3098 -2.862e-02    0.2261    0.8168    3.1416    3.1416  3.085e-20 -2.188e-22    3.1416  3.085e-20  110.0000 1
88 -5.379e-03 -7.316e-03  3.239e-02 -1.123e-02  3.543e-02 -5.605e-03  2.112e-08  2.001e-08  9.778e-10  9.795e-10   -0.1592    0.1656    0.3798    0.3118    0.3562   -0.2015    3.1416    3.1416  1.785e-19 -6.674e-17    3.1416  1.785e-19  110.0000 1
89 -7.537e-03 -1.148e-03  1.358e-02 -2.948e-02 -4.979e-03 -2.353e-02  2.125e-08  2.273e-08  1.103e-09  1.144e-09    0.1608   -0.4352   -0.1561    0.2781    0.2049 -1.325e-02    3.1416    3.1416 -7.580e-23  6.035e-22    3.1416 -7.580e-23  110.0000 1
90 -1.330e-02  4.684e-03  2.386e-02  4.933e-03 -1.048e-02 -2.299e-02  1.979e-08  1.997e-08  1.013e-09  9.421e-10  9.758e-02 -2.175e-03   -0.2250 -1.644e-02  8.873e-03   -0.3281    3.1416    3.1416 -1.193e-18 -2.230e-20    3.1416 -1.193e-18  110.0000 1
91  9.553e-03 -1.610e-02 -9.595e-03 -9.441e-03  2.350e-03 -6.243e-03  1.915e-08  2.412e-08  9.391e-10  1.042e-09   -0.3228   -0.1073    0.5186    0.2999 -9.505e-02    0.4427    3.1416    3.1416  1.055e-19  4.594e-22    3.1416  1.055e-19  110.0000 1
92 -1.710e-02  3.104e-02  7.397e-03 -3.046e-03 -1.998e-02 -1.033e-02  2.447e-08  1.958e-08  1.010e-09  9.579e-10    0.8721  8.849e-02    0.3999   -0.5931    0.2489    0.5274    3.1416    3.1416 -1.097e-19 -1.701e-27    3.1416 -1.097e-19  110.0000 1
93 -2.573e-03 -1.715e-03 -1.905e-02  1.079e-02  6.498e-03  3.739e-02  2.554e-08  2.087e-08  8.980e-10  1.092e-09   -0.2256 -2.373e-02    0.3296   -0.4910   -0.4708    0.3811    3.1416    3.1416  1.287e-21 -7.334e-24    3.1416  1.287e-21  110.0000 1
94 -1.124e-02  1.621e-02 -5.705e-03  9.707e-03  1.337e-02 -7.226e-03  2.404e-08  2.283e-08  9.553e-10  8.099e-10 -9.532e-02    0.3828    0.1878    0.2826  3.245e-02    0.3068    3.1416    3.1416 -1.452e-22  1.345e-24    3.1416 -1.452e-22  110.0000 1
95  6.856e-03  3.056e-03 -1.056e-02 -5.332e-04  2.389e-02 -1.332e-02  1.884e-08  2.598e-08  1.133e-09  1.070e-09    0.4101    0.5726 -8.684e-02   -0.7177  4.464e-03   -0.2844    3.1416    3.1416 -3.874e-21  1.151e-19    3.1416 -3.874e-21  110.0000 1
96 -3.512e-02  1.050e-02  1.421e-02 -2.516e-02  2.019e-02 -1.330e-03  2.458e-08  2.207e-08  9.092e-10  1.009e-09    0.6520  3.358e-02 -5.814e-02   -0.2998    0.6680 -2.630e-02    3.1416    3.1416 -2.370e-21  1.983e-24    3.1416 -2.370e-21  110.0000 1
97  1.159e-02  1.801e-02 -2.309e-03  6.361e-03 -1.483e-02 -1.120e-02  2.410e-08  2.171e-08  8.627e-10  1.152e-09    0.2584    0.3143   -0.6859    0.2242 -9.898e-02   -0.2873    3.1416    3.1416 -1.353e-19  3.347e-19    3.1416 -1.353e-19  110.0000 1
98  1.395e-03  3.049e-03 -3.112e-03  2.429e-03 -1.837e-02 -1.209e-02  2.227e-08  2.457e-08  1.007e-09  1.111e-09    0.2457    0.4774    0.6405    0.4764    0.5020    0.2811    3.1416    3.1416  3.370e-18  1.588e-22    3.1416  3.370e-18  110.0000 1
99 -9.534e-03  7.775e-03  4.026e-03 -1.222e-02  2.091e-02 -9.509e-03  2.186e-08  2.175e-08  9.612e-10  1.012e-09   -0.1252    0.3574   -0.6030    0.1002  3.790e-03   -0.2240    3.1416    3.1416  2.274e-19  5.256e-24    3.1416  2.274e-19  110.0000 1
100 -2.760e-03 -8.719e-03  7.976e-03  2.228e-02  3.339e-02  4.315e-03  2.017e-08  1.940e-08  1.043e-09  1.019e-09    0.1457 -5.791e-02  1.610e-02  3.306e-02    0.4202    0.4722    3.1416    3.1416  7.237e-20  6.362e-17    3.1416  7.237e-20  110.0000 1
101  2.905e-02 -1.804e-02  1.121e-02 -8.989e-04 -1.242e-02  1.391e-02  2.075e-08  1.899e-08  9.532e-10  1.041e-09   -0.4208    0.4561  4.747e-02   -0.7121    0.2559   -0.1276    3.1416    3.1416 -2.061e-22 -1.679e-20    3.1416 -2.061e-22  110.0000 1
102  1.864e-02  8.676e-03 -1.968e-03 -9.816e-03  7.745e-03 -9.083e-03  2.369e-08  2.686e-08  1.055e-09  8.702e-10  4.399e-02    0.2061    0.2774 -1.266e-02   -0.2984  8.385e-02    3.1416    3.1416  8.203e-19    0.    3.1416  8.203e-19  110.0000 1
103  5.083e-03 -4.504e-04  1.310e-02  1.345e-03  2.044e-02 -4.712e-03  2.121e-08  2.297e-08  1.003e-09  8.959e-10   -0.5071 -8.852e-02 -2.478e-02   -0.2928    0.4840   -0.1850    3.1416    3.1416 -1.990e-16 -5.541e-17    3.1416 -1.990e-16  110.0000 1
104 -2.513e-02 -2.250e-05 -1.171e-02 -4.555e-03 -2.104e-03 -6.332e-03  2.373e-08  2.208e-08  9.218e-10  1.171e-09   -0.5229 -2.148e-02   -0.3038  1.593e-02   -0.3339    0.1577    3.1416    3.1416  7.212e-19 -4.066e-22    3.1416  7.212e-19  110.0000 1
105  4.398e-03 -1.435e-02  2.286e-02 -1.422e-02 -9.937e-03  1.573e-02  1.897e-08  2.122e-08  1.216e-09  1.099e-09   -0.5015   -0.7587    0.6797 -3.031e-02    0.2954   -0.3922    3.1416    3.1416  1.695e-18 -5.548e-23    3.1416  1.695e-18  110.0000 1
106  7.949e-04  1.074e-02 -4.061e-02  8.024e-04 -2.092e-02 -2.063e-02  2.154e-08  2.063e-08  1.084e-09  9.913e-10    0.4097    0.1354   -0.4118    0.3967   -0.2470    0.2063    3.1416    3.1416 -2.329e-21  8.619e-24    3.1416 -2.329e-21  110.0000 1
107  6.451e-05  2.391e-03  1.786e-02 -1.078e-02  1.412e-02 -1.714e-02  1.935e-08  2.242e-08  8.435e-10  1.122e-09    0.7075 -3.053e-02    0.3772    0.3987    0.1469   -0.3855    3.1416    3.1416  3.862e-21  5.984e-22    3.1416  3.862e-21  110.0000 1
108  2.811e-03  1.933e-02  1.797e-02  2.071e-02  2.246e-03 -2.201e-02  2.159e-08  2.306e-08  9.397e-10  9.365e-10  9.784e-02   -0.4449 -5.856e-03  4.564e-02    0.2922    0.6202    3.1416    3.1416  1.756e-22 -7.143e-22    3.1416  1.756e-22  110.0000 1
109 -8.964e-03 -1.433e-02  2.190e-02  1.909e-02  1.747e-02  6.252e-03  2.470e-08  1.831e-08  8.037e-10  1.173e-09    0.1716 -9.899e-02    0.1361    0.6566    0.3705  2.153e-03    3.1416    3.1416 -1.079e-21  8.177e-24    3.1416 -1.079e-21  110.0000 1
110 -7.440e-03  3.792e-03 -1.741e-03  2.079e-02 -7.696e-03  4.872e-03  2.136e-08  1.901e-08  9.368e-10  8.456e-10  5.380e-03  5.119e-02  2.573e-02   -0.1645 -4.594e-02    0.5218    3.1416    3.1416 -2.589e-20 -3.615e-23    3.1416 -2.589e-20  110.0000 1
111  5.097e-03  2.467e-03  2.496e-02 -1.021e-02  1.280e-02 -2.174e-02  1.880e-08  2.093e-08  1.107e-09  9.830e-10    0.4342    0.2741   -0.1043    0.4791    0.1928    0.7555    3.1416    3.1416  2.931e-22  6.155e-22    3.1416  2.931e-22  110.0000 1
112  1.741e-02 -2.284e-02 -2.915e-02  1.700e-02  1.884e-02  9.738e-03  2.340e-08  2.185e-08  9.237e-10  1.289e-09   -0.2264  1.326e-02    0.6900  8.999e-02   -0.5289    0.2210    3.1416    3.1416 -6.200e-15 -6.292e-22    0.7719 -6.200e-15  110.0000 1
113 -1.357e-02  4.726e-03 -1.926e-02 -6.096e-03 -1.091e-02 -6.877e-03  1.975e-08  2.082e-08  9.903e-10  8.742e-10    0.5433   -0.6487    0.1462  8.775e-02 -6.013e-03  4.875e-03    3.1416    3.1416 -5.030e-22 -1.083e-20    3.1416 -5.030e-22  110.0000 1
114 -1.407e-02 -2.544e-02 -6.766e-03  4.847e-03 -2.005e-03  1.131e-02  2.198e-08  1.937e-08  9.574e-10  9.608e-10    0.6592    0.6881    0.4655    0.2492   -0.4779   -0.3975    3.1416    3.1416  2.975e-18  4.156e-17    3.1416  2.975e-18  110.0000 1
115  2.271e-02 -7.846e-03 -2.980e-03  2.988e-02 -3.384e-03  1.385e-02  1.899e-08  2.275e-08  1.090e-09  9.983e-10   -0.5583    0.4158 -4.655e-03 -3.452e-02   -0.8531    0.1384    3.1416    3.1416  1.501e-19 -2.816e-21    3.1416  1.501e-19  110.0000 1
116 -1.797e-02  3.322e-02  9.629e-04 -1.239e-03 -1.328e-03  4.225e-03  2.041e-08  2.181e-08  1.055e-09  1.098e-09   -0.3881   -0.3665   -0.3017    0.4633   -0.1156  7.815e-02    3.1416    3.1416  2.468e-20  1.810e-22    3.1416  2.468e-20  110.0000 1
117  1.453e-02  1.038e-02  5.761e-03  1.053e-03 -3.089e-02  2.421e-02  1.921e-08  2.090e-08  9.787e-10  1.089e-09    0.2177   -0.5774   -0.1737    0.3192   -0.5038  1.131e-02    3.1416    3.1416 -4.146e-18  8.254e-21    3.1416 -4.146e-18  110.0000 1
118 -1.010e-02 -5.910e-03  2.213e-02  1.653e-02  2.430e-02  3.145e-02  2.420e-08  2.052e-08  8.797e-10  1.046e-09  7.895e-02   -0.1571 -7.295e-02   -0.3278    0.2374   -0.2546    3.1416    3.1416  1.136e-19 -3.996e-23    3.1416  1.136e-19  110.0000 1
119  8.693e-04 -1.211e-02 -2.034e-02  1.615e-03  2.110e-02 -4.526e-03  2.074e-08  1.839e-08  9.770e-10  1.184e-09  5.533e-02    0.2680   -0.3835   -0.3580   -0.3455   -0.3106    3.1416    3.1416 -4.056e-20 -1.727e-23    3.1416 -4.056e-20  110.0000 1
120  1.198e-02 -8.577e-03  2.810e-02  1.784e-02  3.957e-03  1.534e-02  2.313e-08  1.757e-08  8.984e-10  1.139e-09   -0.2041    0.3623   -0.4324  4.522e-02 -5.881e-02  1.243e-02    3.1416    3.1416  4.369e-21 -4.211e-23    3.1416  4.369e-21  110.0000 1
121  1.887e-02  1.162e-02  1.249e-02  2.632e-02  1.447e-02 -3.268e-02  1.958e-08  2.122e-08  9.933e-10  1.050e-09 -4.947e-02  6.639e-02   -0.2750   -0.2378   -0.4977    0.4976    3.1416    3.1416 -6.163e-21  9.058e-18    3.1416 -6.163e-21  110.0000 1
122  1.925e-02 -2.855e-02  6.918e-03 -3.165e-03  1.594e-02  1.094e-02  2.326e-08  2.191e-08  1.040e-09  9.613e-10    0.3593    0.3496    1.5189    0.8060   -0.4136   -0.3434    3.1416    3.1416 -2.721e-19 -1.192e-22    3.1416 -2.721e-19  110.0000 1
123  1.163e-02 -2.679e-02 -9.149e-03 -3.537e-02 -4.075e-03  4.629e-02  1.880e-08  2.464e-08  9.100e-10  1.078e-09    0.3498    0.4222    0.1159  8.403e-02 -7.669e-02    0.2843    3.1416    3.1416 -4.758e-17  9.768e-25    3.1416 -4.758e-17  110.0000 1
124 -1.065e-02 -9.072e-03  4.680e-03  1.493e-03  1.898e-03  4.098e-02  2.121e-08  2.397e-08  1.066e-09  8.697e-10   -0.2952    0.4159    0.7369   -0.1148    0.1939    0.1587    3.1416    3.1416  3.528e-22 -1.283e-26    3.1416  3.528e-22  110.0000 1
125 -8.779e-03 -9.630e-03  6.611e-03  6.509e-03  4.830e-03 -9.258e-03  2.078e-08  2.399e-08  9.234e-10  1.077e-09   -0.4791    0.3548  7.411e-02   -0.6120   -0.4742   -0.2095    3.1416    3.1416 -1.127e-19  2.598e-21    3.1416 -1.127e-19  110.0000 1
126 -1.147e-02 -1.478e-02 -9.288e-03  1.101e-02 -1.016e-02 -5.555e-03  2.526e-08  1.981e-08  9.748e-10  9.716e-10    0.4791  6.656e-02   -0.2821    0.1254   -0.3715 -2.056e-02    3.1416    3.1416 -4.311e-20 -9.662e-24    3.1416 -4.311e-20  110.0000 1
127 -1.633e-02 -1.185e-02  5.210e-03 -2.644e-02  2.703e-02 -1.252e-02  1.860e-08  2.469e-08  1.192e-09  1.130e-09   -0.1220    0.3162  5.136e-03 -9.567e-02   -0.1316    0.2138    3.1416    3.1416  5.084e-21 -6.996e-22    3.1416  5.084e-21  110.0000 1
128 -4.734e-02 -1.502e-02  2.876e-02 -5.778e-04  3.335e-03  1.541e-02  2.609e-08  2.215e-08  7.730e-10  1.088e-09  9.908e-02  7.130e-02   -0.3810    0.4266    0.5636   -0.1811    3.1416    3.1416 -1.041e-20 -8.992e-21    3.1416 -1.041e-20  110.0000 1
129  2.206e-02  6.802e-03  2.755e-03 -4.336e-03 -7.517e-03  2.082e-02  2.229e-08  2.126e-08  8.035e-10  1.007e-09    0.1901    0.7360  2.260e-02    0.3020 -3.398e-02   -0.1692    3.1416    3.1416  5.406e-18 -7.412e-21    3.1416  5.406e-18  110.0000 1
130 -1.748e-02 -1.350e-04 -1.556e-04 -1.904e-02  5.763e-03 -1.425e-02  1.855e-08  1.903e-08  8.572e-10  9.080e-10    0.6196  5.149e-02    0.2207 -7.556e-02    0.3527  8.657e-02    3.1416    3.1416 -6.754e-20  4.108e-23    3.1416 -6.754e-20  110.0000 1
131 -2.445e-03 -2.536e-02 -1.763e-02 -1.206e-02 -2.468e-02 -4.723e-02  2.445e-08  1.868e-08  1.067e-09  1.057e-09    0.1522    0.1469   -0.2215   -0.3333    0.4312  4.216e-02    3.1416    3.1416 -2.952e-19  1.991e-25    3.1416 -2.952e-19  110.0000 1
132  5.164e-03  4.127e-02 -1.733e-02 -9.117e-03  8.304e-03 -1.799e-03  2.447e-08  2.132e-08  1.205e-09  9.979e-10   -0.2391    0.4556   -0.9468   -0.5679   -0.1551  5.855e-02    0.8462    3.1416 -1.397e-23    0.    3.1416 -1.397e-23  110.0000 1
133  3.314e-02  1.399e-02  1.153e-02 -2.132e-02 -3.459e-03 -2.213e-02  1.968e-08  2.583e-08  9.818e-10  9.020e-10   -0.5017 -5.668e-02   -0.7213    0.1129 -2.670e-02  1.672e-02    3.1416    3.1416  1.751e-20 -1.550e-21    3.1416  1.751e-20  110.0000 1
134  3.555e-03  2.844e-02  1.903e-02 -6.213e-03  8.092e-03  6.981e-03  2.500e-08  1.824e-08  1.037e-09  1.052e-09   -0.2178    0.4368    0.1667   -0.1629    0.3314    0.7386    3.1416    3.1416  1.339e-20 -4.717e-23    3.1416  1.339e-20  110.0000 1
135  1.788e-02  7.803e-03  1.498e-02 -1.562e-02 -3.781e-04  1.376e-04  2.266e-08  1.887e-08  1.152e-09  1.138e-09    0.6181    0.4189 -2.794e-02    0.6518   -0.3844    0.2414    3.1416    3.1416  1.003e-18  2.250e-25    3.1416  1.003e-18  110.0000 1
136  1.852e-02  3.859e-03  2.801e-04 -6.427e-03 -3.160e-03 -2.673e-02  2.408e-08  1.655e-08  1.100e-09  1.267e-09  8.699e-02    0.2163 -9.462e-02   -0.7009   -0.2251  9.867e-02    3.1416    3.1416  6.865e-22 -3.018e-24    3.1416  6.865e-22  110.0000 1
137  1.555e-02  2.840e-03 -1.078e-02 -1.419e-02  7.115e-03 -5.546e-03  2.273e-08  2.114e-08  1.181e-09  1.242e-09  4.074e-02   -0.4300    0.5112   -0.4838    0.3365   -0.3563    3.1416    3.1416 -4.868e-21 -9.438e-27    3.1416 -4.868e-21  110.0000 1
138  3.427e-02  7.869e-03  3.132e-02 -2.307e-03  3.616e-02  1.881e-02  2.235e-08  2.345e-08  1.002e-09  1.075e-09 -9.207e-02    0.4656    0.2062    0.1663    0.4571    0.2262    3.1416    3.1416  2.379e-19 -2.695e-22    3.1416  2.379e-19  110.0000 1
139  2.478e-03 -1.886e-02 -5.163e-03  3.586e-03  5.305e-03  9.026e-04  1.662e-08  2.216e-08  9.168e-10  1.041e-09  7.279e-02   -0.2092 -6.315e-02    0.2867   -0.3273   -0.2444    3.1416    3.1416  3.478e-21  1.337e-21    3.1416  3.478e-21  110.0000 1
140 -3.379e-02 -7.448e-03 -8.975e-03  1.200e-02  1.550e-02 -6.460e-03  2.007e-08  2.137e-08  1.099e-09  1.065e-09 -5.684e-02   -0.2041   -0.1582   -0.2600 -2.342e-02    0.2154    3.1416    3.1416  1.840e-18  8.441e-20    3.1416  1.840e-18  110.0000 1
141 -1.142e-02  1.079e-02 -9.044e-03  7.342e-03  2.246e-02  1.987e-02  2.433e-08  2.106e-08  8.631e-10  1.134e-09  5.240e-02 -3.096e-02 -5.422e-02   -0.5580    0.4737   -0.3347    3.1416    3.1416 -2.328e-20 -4.379e-22    3.1416 -2.328e-20  110.0000 1
142 -4.679e-03  3.302e-03 -7.914e-03  1.630e-02  1.646e-02  3.514e-02  1.848e-08  2.232e-08  1.144e-09  9.278e-10    0.6165   -0.4294    0.4426   -0.1453  3.483e-02   -0.2213    3.1416    3.1416 -1.651e-21  1.924e-22    3.1416 -1.651e-21  110.0000 1
143 -2.404e-02 -7.301e-03 -2.336e-03  4.172e-03 -8.301e-03  8.005e-03  2.369e-08  2.177e-08  9.710e-10  1.192e-09  7.007e-02   -0.4285  2.303e-02  2.454e-03    0.1447   -0.2681    3.1416    3.1416  6.927e-20  6.940e-25    3.1416  6.927e-20  110.0000 1
144  5.468e-03  2.762e-02  1.422e-02 -9.654e-03  1.613e-02 -1.298e-02  2.035e-08  2.367e-08  8.120e-10  9.013e-10 -7.194e-02  5.111e-02    0.2002   -0.2368  4.183e-02   -0.3372    3.1416    3.1416  1.380e-18 -3.284e-22    3.1416  1.380e-18  110.0000 1
145 -4.894e-03 -5.303e-03 -5.136e-03  1.975e-02  9.725e-03  1.063e-02  2.241e-08  2.165e-08  1.012e-09  1.070e-09    0.5724    0.2557   -0.2304   -0.6581    0.2123   -0.2852    3.1416    3.1416 -1.996e-16  7.984e-23    3.1416 -1.996e-16  110.0000 1
146  4.913e-03 -7.571e-03  1.464e-02 -3.320e-02  2.094e-02 -2.566e-02  2.325e-08  1.860e-08  1.097e-09  8.240e-10  8.597e-03    0.2748    0.5757    0.1521 -8.114e-02    0.2671    3.1416    3.1416  8.183e-23 -4.205e-23    3.1416  8.183e-23  110.0000 1
147  8.222e-03  2.287e-02  4.654e-02  1.430e-02 -4.599e-03  1.290e-02  2.268e-08  2.624e-08  1.031e-09  9.718e-10   -0.1483   -0.6649    0.2004   -0.4013   -0.3031    0.3164    3.1416    3.1416  2.314e-21 -2.244e-24    3.1416  2.314e-21  110.0000 1
148 -1.004e-02 -1.439e-02  2.121e-02  1.486e-02 -1.238e-02 -2.057e-03  2.042e-08  2.148e-08  9.249e-10  8.426e-10    0.2627    0.6485 -6.116e-03    0.5503  1.425e-03 -8.888e-02    3.1416    3.1416  2.180e-18 -2.003e-23    3.1416  2.180e-18  110.0000 1
149  4.101e-02 -1.747e-03 -2.878e-02 -1.646e-03 -3.467e-03 -1.104e-02  2.353e-08  2.201e-08  1.005e-09  9.091e-10 -4.344e-02  8.085e-03  5.220e-02   -0.6089   -0.3816    0.1685    3.1416    3.1416 -5.966e-20 -1.016e-22    3.1416 -5.966e-20  110.0000 1
150 -1.680e-02  9.071e-03 -6.705e-03  4.843e-03  2.992e-02 -1.174e-03  2.357e-08  2.306e-08  9.647e-10  8.646e-10  9.366e-02 -7.829e-02   -0.2923   -0.1204   -0.1741   -0.2254    3.1416    3.1416 -2.660e-21 -2.803e-21    3.1416 -2.660e-21  110.0000 1
151  5.228e-04  1.051e-02 -7.350e-03 -1.283e-03  4.324e-03 -1.118e-02  1.808e-08  2.489e-08  1.166e-09  1.060e-09   -0.4701    0.4671    0.2234  2.711e-02    0.4604    0.1567    3.1416    3.1416  4.689e-23  1.227e-23    3.1416  4.689e-23  110.0000 1
152  6.500e-03 -2.387e-02  7.181e-03 -1.236e-02 -2.631e-03  1.849e-03  2.120e-08  2.052e-08  9.929e-10  1.058e-09    0.1891   -0.6356   -0.1017    0.2432   -0.5443   -0.2323    3.1416    3.1416 -1.897e-22 -4.878e-23    3.1416 -1.897e-22  110.0000 1
153 -1.511e-02 -8.421e-03  1.096e-02  1.594e-02  9.902e-03  2.430e-02  2.679e-08  2.165e-08  1.021e-09  1.052e-09    0.4227  4.836e-02   -0.2813   -0.3214    0.1658   -0.5303    3.1416    3.1416  3.601e-20  4.339e-27    3.1416  3.601e-20  110.0000 1
154  2.605e-02  5.711e-03 -3.199e-02  3.589e-03  6.615e-03  4.029e-03  2.055e-08  2.040e-08  1.057e-09  9.942e-10  8.208e-03   -0.2309   -0.5509    0.1985    0.2361   -0.1412    3.1416    3.1416  9.702e-19 -6.028e-23    3.1416  9.702e-19  110.0000 1
155  6.096e-03 -7.883e-03  1.120e-02  3.199e-03  1.099e-02 -1.899e-02  2.497e-08  1.967e-08  9.834e-10  1.029e-09   -0.1399    0.2941   -0.1983 -4.970e-02    0.2804    0.1925    3.1416    3.1416  3.736e-19 -3.977e-24    3.1416  3.736e-19  110.0000 1
156 -1.587e-02 -1.231e-02 -1.052e-02 -1.441e-02 -2.843e-03 -4.314e-04  2.439e-08  2.046e-08  9.708e-10  9.215e-10   -0.1814    0.6802   -0.2868   -0.6092  2.681e-02   -0.1406    3.1416    3.1416 -2.540e-20  2.433e-25    3.1416 -2.540e-20  110.0000 1
157 -1.484e-02  7.736e-03 -4.399e-03 -1.281e-02  9.080e-03  1.167e-02  2.510e-08  2.294e-08  1.006e-09  1.230e-09    0.4922 -3.590e-02 -9.660e-02    0.1938    0.8964   -0.1283    3.1416    3.1416  3.943e-21  5.487e-21    0.7913  3.943e-21  110.0000 1
158 -2.553e-03  2.323e-03 -2.058e-02 -1.136e-03  4.319e-03  2.545e-02  2.295e-08  2.052e-08  9.917e-10  1.206e-09  3.170e-02    0.2950   -0.4537   -0.7474    0.3310    0.5031    3.1416    3.1416 -2.560e-22  5.230e-25    3.1416 -2.560e-22  110.0000 1
159 -1.422e-02 -2.078e-04  1.508e-02  7.549e-03  4.786e-03 -5.561e-03  2.245e-08  2.291e-08  1.059e-09  9.628e-10  8.948e-02   -0.2153    0.2791    0.2219    0.2262    0.2423    3.1416    3.1416 -1.277e-20  3.631e-23    3.1416 -1.277e-20  110.0000 1
160 -7.631e-03  2.240e-03 -6.365e-03 -2.001e-02  3.762e-03 -1.371e-02  2.150e-08  2.260e-08  1.079e-09  1.045e-09   -0.1577 -5.091e-03   -0.6220   -0.1314    0.1971  7.489e-02    3.1416    3.1416  3.373e-18  4.246e-21    3.1416  3.373e-18  110.0000 1
161 -1.685e-02  2.148e-02  5.054e-04 -2.124e-02  1.340e-02 -1.197e-02  2.489e-08  2.579e-08  1.135e-09  9.605e-10   -0.3598    0.1105 -6.982e-02    0.4033   -0.1185    0.1507    0.8081    3.1416  1.216e-18    0.    3.1416  1.216e-18  110.0000 1
162 -7.600e-03 -6.851e-03 -1.046e-02  3.742e-02  6.884e-03  3.125e-05  2.237e-08  1.901e-08  9.935e-10  9.945e-10   -0.4533    0.6783   -0.3610    0.1570   -0.2397   -0.1939    3.1416    3.1416  9.358e-20  4.795e-24    3.1416  9.358e-20  110.0000 1
163 -6.288e-03 -2.591e-02 -3.466e-02 -1.062e-02 -3.451e-02 -1.388e-02  2.571e-08  1.793e-08  1.165e-09  9.147e-10   -0.1914   -0.3222    0.3669    0.1194    0.4410   -0.1889    3.1416    3.1416 -1.266e-20    0.    3.1416 -1.266e-20  110.0000 1
164  1.698e-02  1.861e-02 -2.555e-02  1.664e-02  2.019e-02 -1.946e-02  2.201e-08  2.154e-08  1.019e-09  8.540e-10    0.3232    0.1259    0.1464   -0.6495    0.2048   -0.5641    3.1416    3.1416 -7.166e-21  2.737e-25    3.1416 -7.166e-21  110.0000 1
165 -2.426e-02  1.176e-02 -1.399e-02  3.597e-03 -1.122e-02  1.727e-02  2.356e-08  2.140e-08  1.090e-09  1.122e-09   -0.1889   -0.6543   -0.1692  3.735e-02    0.2329   -0.3321    3.1416    3.1416  1.183e-17 -4.373e-23    3.1416  1.183e-17  110.0000 1
166 -2.288e-02 -7.385e-03 -6.395e-03  1.865e-02  1.422e-02  4.066e-03  1.832e-08  2.340e-08  8.107e-10  9.110e-10    0.9491   -0.2405    0.1709   -0.2262  7.319e-02 -4.695e-02    3.1416    3.1416  2.465e-18 -9.219e-24    3.1416  2.465e-18  110.0000 1
167  1.942e-04 -9.892e-03 -2.405e-02 -8.761e-03 -1.405e-03  9.620e-03  2.055e-08  2.132e-08  9.981e-10  1.052e-09    0.2155 -6.582e-03   -0.2130    0.1512   -0.7741    0.2878    3.1416    3.1416  4.878e-22  2.158e-24    3.1416  4.878e-22  110.0000 1
168  3.564e-03 -3.277e-03 -2.297e-02 -2.288e-03  1.254e-02 -2.037e-02  1.981e-08  2.103e-08  1.070e-09  8.936e-10    0.1524 -9.917e-03    0.2432   -0.2359    0.5027    0.4471    3.1416    3.1416 -4.561e-21  2.573e-24    3.1416 -4.561e-21  110.0000 1
169  2.652e-02 -4.011e-03  4.735e-03 -1.687e-03  5.179e-03  2.293e-02  2.081e-08  2.198e-08  1.032e-09  1.096e-09   -0.1445   -0.1979    0.2301    0.2283    0.5160    0.5353    3.1416    3.1416 -9.709e-17  1.969e-18    3.1416 -9.709e-17  110.0000 1
170 -5.044e-02 -2.605e-02  8.485e-03  1.982e-04  1.079e-02  4.314e-03  2.220e-08  2.128e-08  1.039e-09  8.992e-10   -0.5670   -0.2118   -0.7624   -0.2038    0.1673    0.3238    3.1416    3.1416 -3.450e-18 -6.009e-24    3.1416 -3.450e-18  110.0000 1
171 -5.192e-03  2.374e-02 -1.582e-02  4.644e-03  2.325e-02  1.619e-02  2.431e-08  2.234e-08  1.033e-09  8.445e-10    0.1851   -0.2946   -0.2511   -0.7979   -0.1627   -0.4087    3.1416    3.1416 -5.403e-20 -5.548e-26    3.1416 -5.403e-20  110.0000 1
172  1.641e-02 -1.703e-02  4.123e-02 -2.273e-03  1.546e-03 -1.972e-02  2.097e-08  2.268e-08  1.142e-09  1.047e-09    0.2856    0.3972  5.856e-02  6.570e-03    0.2742 -9.305e-02    3.1416    3.1416 -2.069e-20 -6.282e-24    3.1416 -2.069e-20  110.0000 1
173 -2.002e-02 -4.112e-02  5.993e-03 -2.032e-02 -9.992e-03 -1.055e-02  2.074e-08  2.083e-08  1.191e-09  1.166e-09   -0.5604  8.284e-02    0.2249    0.4063   -0.4154   -0.1108    3.1416    3.1416  6.546e-20 -5.416e-24    3.1416  6.546e-20  110.0000 1
174  7.015e-03 -5.420e-04  7.637e-03  2.977e-03 -1.825e-02  1.717e-02  1.926e-08  1.890e-08  9.497e-10  1.107e-09 -8.581e-02    0.2549   -0.3291    0.1299   -0.5297   -0.3312    3.1416    3.1416 -5.245e-21  8.592e-22    3.1416 -5.245e-21  110.0000 1
175  6.593e-03  5.358e-03  3.159e-02  3.309e-02 -1.028e-02  4.202e-03  2.149e-08  2.402e-08  9.979e-10  8.873e-10 -1.133e-02 -3.995e-02    0.3476   -0.1250    0.3774    0.4324    3.1416    3.1416 -1.468e-21  1.057e-25    3.1416 -1.468e-21  110.0000 1
176  2.612e-03  1.677e-03 -5.179e-03 -1.754e-02 -6.248e-04  9.806e-03  2.005e-08  2.554e-08  8.947e-10  9.931e-10    0.7168    0.3188    0.5179    0.1899    0.1931    0.1953    3.1416    3.1416 -3.402e-19 -1.319e-22    3.1416 -3.402e-19  110.0000 1
177  5.558e-03 -2.243e-02 -1.064e-02  1.179e-02 -1.819e-02  7.918e-03  2.291e-08  2.376e-08  1.140e-09  1.140e-09   -0.1325   -0.2115  8.739e-02 -4.479e-03  3.578e-02   -0.2341    3.1416    3.1416 -3.303e-22  2.496e-23    3.1416 -3.303e-22  110.0000 1
178  4.036e-03  1.337e-02 -1.268e-02  6.947e-03  2.777e-02 -1.492e-02  1.680e-08  2.588e-08  9.937e-10  1.111e-09   -0.3265  8.543e-02 -7.642e-03    0.4554  7.489e-02   -0.3489    3.1416    3.1416 -4.228e-20 -5.190e-20    3.1416 -4.228e-20  110.0000 1
179  2.428e-03 -4.064e-02  3.821e-02  8.591e-03  3.885e-02 -1.489e-02  2.504e-08  1.794e-08  9.489e-10  9.941e-10  7.272e-03   -0.3734    0.5414   -0.1061   -0.7235   -0.2585    3.1416    3.1416  3.033e-22 -4.157e-18    3.1416  3.033e-22  110.0000 1
180  2.061e-03  2.958e-02 -1.311e-02  5.768e-04 -6.424e-03  6.311e-03  2.263e-08  2.265e-08  9.663e-10  1.157e-09   -0.2471   -0.3188 -4.666e-02   -0.2205    0.4476    0.1700    3.1416    3.1416 -5.869e-21 -6.304e-20    3.1416 -5.869e-21  110.0000 1
181 -9.480e-03  1.827e-02  3.731e-02 -1.285e-02 -1.799e-03  3.442e-02  2.117e-08  1.890e-08  1.093e-09  1.186e-09 -4.050e-02 -5.222e-03    0.4023    0.5768    0.3167   -0.2792    3.1416    3.1416 -4.686e-23 -2.394e-21    3.1416 -4.686e-23  110.0000 1
182  1.528e-03 -2.921e-02  1.005e-02  1.405e-02  9.676e-03  8.876e-03  2.163e-08  2.832e-08  1.059e-09  1.105e-09   -0.2203    0.1193   -0.1463 -2.203e-02    0.6380   -0.1099    3.1416    3.1416 -4.535e-16 -1.131e-23    0.7811 -4.535e-16  110.0000 1
183 -3.817e-03  5.938e-03 -7.824e-03 -4.830e-03  1.395e-02 -6.857e-03  2.153e-08  2.117e-08  1.012e-09  1.094e-09 -8.215e-02    0.5010    0.2360 -8.555e-02    0.2680   -0.7434    3.1416    3.1416  1.299e-17  5.024e-23    3.1416  1.299e-17  110.0000 1
184  9.727e-03  2.194e-02 -9.529e-03 -6.121e-02 -3.839e-03  5.435e-03  2.401e-08  2.201e-08  1.238e-09  1.225e-09   -0.3028   -0.1290   -0.2099    0.2884   -0.1473   -0.3073    0.8817    3.1416 -2.865e-21  6.726e-25    3.1416 -2.865e-21  110.0000 1
185  1.238e-02  2.446e-03  3.992e-03 -1.857e-02  1.487e-03  2.626e-02  2.417e-08  2.615e-08  9.366e-10  1.150e-09 -5.673e-02    0.3269    0.5969    0.2223   -0.3083  6.199e-02    3.1416    3.1416  1.401e-21  2.112e-20    0.7457  1.401e-21  110.0000 1
186  3.272e-02  1.090e-02 -1.129e-02 -3.845e-02 -1.058e-03 -8.820e-04  2.604e-08  2.332e-08  9.940e-10  1.053e-09    0.1065   -0.2421    0.4402    0.3065   -0.5191 -2.003e-02    3.1416    3.1416  8.459e-19  1.021e-25    3.1416  8.459e-19  110.0000 1
187 -3.362e-03 -1.417e-02  2.092e-02  1.001e-02  2.385e-03  6.157e-04  2.418e-08  1.983e-08  9.862e-10  1.173e-09   -0.2915  5.176e-02    0.2054    0.3637   -0.5806   -0.3317    3.1416    3.1416 -1.387e-21  1.871e-27    3.1416 -1.387e-21  110.0000 1
188 -1.052e-02  2.284e-02  1.170e-02 -2.311e-02  2.397e-02  7.193e-03  1.910e-08  2.363e-08  9.303e-10  8.722e-10   -0.7542    0.1413   -0.4965    0.1353  6.903e-02   -0.5171    3.1416    3.1416 -2.634e-19 -2.701e-22    3.1416 -2.634e-19  110.0000 1
189  4.338e-04  9.794e-03  5.885e-02  3.032e-02  1.064e-02 -6.108e-03  2.040e-08  2.213e-08  8.934e-10  1.147e-09   -0.2724 -9.864e-02    0.2957   -0.2271    0.3152   -0.4457    3.1416    3.1416 -5.935e-21  2.254e-21    3.1416 -5.935e-21  110.0000 1
190 -2.565e-02 -1.080e-03  2.620e-02 -2.085e-02 -2.253e-03 -3.855e-04  2.432e-08  2.180e-08  1.108e-09  1.105e-09 -5.899e-02    0.1992    0.2270   -0.1630    0.2636   -0.1990    3.1416    3.1416 -2.940e-21  3.659e-22    3.1416 -2.940e-21  110.0000 1
191  7.141e-03 -2.648e-02 -1.199e-02 -4.367e-03 -2.947e-02 -1.751e-02  2.059e-08  2.141e-08  9.449e-10  1.088e-09   -0.4353 -3.233e-02   -0.4547    0.4262    0.3514    0.4020    3.1416    3.1416 -2.616e-21 -7.498e-21    3.1416 -2.616e-21  110.0000 1
192  1.919e-02  2.141e-02  2.255e-04  1.340e-02 -4.200e-03  1.144e-02  2.121e-08  2.443e-08  8.977e-10  1.050e-09   -0.1823 -6.320e-02   -0.4433    0.4475    0.1732   -0.2870    3.1416    3.1416  9.612e-20 -9.275e-18    3.1416  9.612e-20  110.0000 1
193  1.266e-02 -5.231e-03 -1.815e-02  1.261e-02  2.714e-02 -9.411e-03  2.122e-08  2.551e-08  9.144e-10  9.332e-10    0.4342   -0.1136    0.4848    0.4088    0.3635   -0.3025    3.1416    3.1416 -1.569e-17  1.244e-25    3.1416 -1.569e-17  110.0000 1
194  6.760e-03  3.138e-02 -2.212e-02 -7.788e-03 -1.062e-02 -1.696e-02  2.221e-08  2.324e-08  8.477e-10  1.051e-09 -3.989e-02    0.5680 -6.406e-02    0.1094   -0.5757   -0.5407    3.1416    3.1416  1.309e-21 -6.039e-28    3.1416  1.309e-21  110.0000 1
195  1.546e-02 -5.007e-03  7.272e-03 -2.266e-02 -1.903e-02  7.347e-03  2.374e-08  2.323e-08  9.372e-10  1.218e-09  9.790e-03    0.2103    0.2293    0.4882   -0.4127  3.240e-03    3.1416    3.1416 -7.556e-22  1.941e-20    0.8790 -7.556e-22  110.0000 1
196  1.123e-02  1.623e-02  2.028e-02  1.761e-02  1.393e-03 -1.392e-02  2.520e-08  2.340e-08  1.002e-09  8.280e-10   -0.3158 -8.969e-05  5.555e-02   -0.4022   -0.5156  6.394e-02    3.1416    3.1416 -8.589e-22 -6.718e-28    3.1416 -8.589e-22  110.0000 1
197 -1.971e-02  1.193e-02  1.415e-02 -2.440e-02 -6.216e-03  4.837e-03  2.030e-08  2.733e-08  1.027e-09  1.016e-09    0.2985   -0.1883  9.503e-03   -0.4313   -0.2760    0.4521    3.1416    3.1416  8.847e-21 -1.812e-23    3.1416  8.847e-21  110.0000 1
198  9.220e-03 -1.109e-02  3.008e-04 -1.782e-02 -2.776e-02  1.430e-02  2.144e-08  1.944e-08  8.309e-10  9.048e-10  9.494e-03   -0.1917   -0.3735    0.2672   -0.2529 -3.274e-03    3.1416    3.1416 -2.453e-20 -4.813e-23    3.1416 -2.453e-20  110.0000 1
199 -1.820e-03  1.942e-02 -3.312e-02 -4.123e-03 -1.050e-02  1.205e-02  2.399e-08  2.258e-08  9.154e-10  9.949e-10    0.1244   -0.2576   -0.1641    0.9371 -9.724e-02  3.743e-02    3.1416    3.1416  9.221e-20  2.784e-24    3.1416  9.221e-20  110.0000 1
200 -2.407e-02  3.693e-03 -1.718e-03  1.077e-02 -2.365e-02 -2.743e-02  2.434e-08  2.456e-08  9.594e-10  9.278e-10  8.131e-02   -0.1375   -0.1919  6.404e-02   -0.1150    0.2381    3.1416    3.1416  7.719e-17  4.392e-24    3.1416  7.719e-17  110.0000 1
201  1.412e-02  1.638e-02  1.191e-02 -3.203e-03  2.029e-02  4.763e-03  2.629e-08  2.078e-08  9.700e-10  9.366e-10    0.5230    0.1999   -0.5116    0.2578   -0.4760   -0.3393    3.1416    3.1416 -9.534e-20  9.156e-26    3.1416 -9.534e-20  110.0000 1
202  1.645e-02 -2.875e-02  6.325e-03  3.719e-03 -3.118e-03 -1.911e-03  1.856e-08  2.425e-08  9.024e-10  1.029e-09 -4.651e-02   -0.2244   -0.6592    0.1450  5.756e-02  5.986e-02    3.1416    3.1416 -1.790e-21 -5.308e-23    3.1416 -1.790e-21  110.0000 1
203  7.769e-04  1.937e-02 -1.475e-02  7.245e-04 -1.438e-02 -1.415e-02  2.103e-08  2.364e-08  9.360e-10  1.034e-09   -0.3140    0.3347   -0.3534    0.2502   -0.5399    0.3281    3.1416    3.1416  3.945e-19 -5.244e-23    3.1416  3.945e-19  110.0000 1
204  4.261e-03 -3.188e-02  1.523e-02  1.326e-02 -3.597e-03  4.059e-04  2.066e-08  1.768e-08  1.010e-09  1.063e-09    0.1395    0.1244    0.3480   -0.6884    0.2912   -0.8781    3.1416    3.1416 -7.292e-21 -3.771e-20    3.1416 -7.292e-21  110.0000 1
205 -3.347e-03 -1.649e-02  2.441e-03 -1.391e-02  2.347e-02  2.390e-02  2.249e-08  1.763e-08  9.353e-10  1.151e-09    0.4582   -0.1674    0.2741   -0.2204    0.1654  5.373e-02    3.1416    3.1416 -1.800e-21 -4.551e-23    3.1416 -1.800e-21  110.0000 1
206  1.972e-02 -3.706e-03  2.142e-03 -3.165e-02 -2.307e-02  2.958e-03  1.993e-08  2.382e-08  9.506e-10  1.098e-09 -9.324e-02    0.2702   -0.3654   -0.3860   -0.1531  5.260e-02    3.1416    3.1416  7.072e-22 -3.419e-20    3.1416  7.072e-22  110.0000 1
207 -1.081e-02 -1.480e-02 -1.419e-02 -1.526e-02 -9.976e-03 -3.088e-02  2.308e-08  2.066e-08  7.905e-10  1.131e-09   -0.1488   -0.1113  5.538e-02    0.4483  2.533e-02   -0.2299    3.1416    3.1416  2.474e-19  1.208e-20    3.1416  2.474e-19  110.0000 1
208 -3.556e-02 -6.589e-03  9.892e-04 -2.308e-02 -2.047e-02  1.394e-02  1.890e-08  1.990e-08  1.061e-09  9.504e-10  6.066e-02    0.5660  8.139e-02    0.2390  6.954e-02   -0.5450    3.1416    3.1416 -4.241e-18 -2.197e-22    3.1416 -4.241e-18  110.0000 1
209 -2.363e-02 -1.532e-04  2.263e-02  3.317e-03 -2.242e-02  1.906e-03  2.106e-08  2.397e-08  1.179e-09  9.333e-10   -0.3944    0.2885   -0.4384    0.2427 -8.589e-02    0.2805    3.1416    3.1416  2.237e-20 -1.215e-23    3.1416  2.237e-20  110.0000 1
210 -1.566e-03 -8.994e-03  7.579e-03 -2.702e-03  3.801e-03  2.368e-03  2.313e-08  2.127e-08  1.019e-09  1.095e-09 -4.422e-02    0.4311   -0.2923  4.498e-02   -0.2382 -7.363e-02    3.1416    3.1416 -2.526e-20 -1.586e-22    3.1416 -2.526e-20  110.0000 1
211  2.376e-02 -7.783e-03 -2.751e-02  7.173e-03  1.442e-02 -3.650e-03  2.132e-08  2.002e-08  1.243e-09  9.275e-10   -0.1025   -0.3807   -0.5701   -0.3824 -4.258e-02   -0.2655    3.1416    3.1416 -5.203e-19  2.201e-26    3.1416 -5.203e-19  110.0000 1
212  1.128e-02  1.143e-02  4.611e-03 -2.434e-03  1.075e-02  5.007e-03  2.588e-08  1.897e-08  1.073e-09  1.028e-09    0.2268    0.3311   -0.1912   -0.4974   -0.1889  2.224e-02    3.1416    3.1416 -3.598e-21 -1.903e-23    3.1416 -3.598e-21  110.0000 1
213  2.909e-04  5.260e-04  2.749e-02  2.052e-02 -2.267e-02  1.297e-02  2.084e-08  1.509e-08  9.636e-10  9.856e-10    0.3496  7.537e-02   -0.2919 -2.255e-02    0.3378   -0.1490    3.1416    3.1416  2.369e-17 -5.368e-24    3.1416  2.369e-17  110.0000 1
214  3.080e-03  3.688e-02 -1.064e-02 -1.405e-03  1.037e-02 -2.169e-02  2.172e-08  2.318e-08  1.194e-09  9.649e-10    0.1493    0.1134    0.2534   -0.1605   -0.1009    0.3565    3.1416    3.1416 -6.643e-21  2.795e-27    3.1416 -6.643e-21  110.0000 1
215 -3.366e-02  3.919e-02 -1.084e-02 -1.749e-02 -2.482e-02  4.188e-03  2.395e-08  2.095e-08  1.334e-09  1.089e-09    0.1358    0.3508    0.5018 -9.413e-02    0.2267    0.1976    0.7126    3.1416 -1.889e-19    0.    3.1416 -1.889e-19  110.0000 1
216  1.423e-02 -2.303e-02 -1.082e-02  2.504e-02 -1.494e-02 -1.598e-02  2.162e-08  2.008e-08  8.638e-10  1.098e-09  3.863e-02   -0.2899    0.1254    0.3188  2.741e-02   -0.4518    3.1416    3.1416  8.580e-18 -6.405e-20    3.1416  8.580e-18  110.0000 1
217 -7.783e-03 -2.643e-02 -2.078e-02  1.111e-02 -1.431e-03  9.560e-03  2.609e-08  2.180e-08  9.370e-10  1.016e-09    0.5756    0.2593   -0.3944   -0.4940   -0.3146    0.1379    3.1416    3.1416  7.763e-17 -1.190e-23    3.1416  7.763e-17  110.0000 1
218  1.670e-02  1.140e-02 -1.794e-02 -1.732e-02  6.719e-03 -2.380e-02  2.338e-08  2.234e-08  1.034e-09  7.475e-10  7.794e-02  9.185e-02 -6.686e-02 -5.320e-02    0.1056 -3.211e-02    3.1416    3.1416 -5.586e-23  1.055e-24    3.1416 -5.586e-23  110.0000 1
219  1.400e-02  1.433e-02 -4.073e-03  1.221e-02 -2.135e-02 -2.060e-02  2.116e-08  2.311e-08  1.022e-09  1.064e-09    0.1446    0.4296    0.2630   -0.3532    0.5971   -0.2694    3.1416    3.1416  6.328e-20 -1.188e-19    3.1416  6.328e-20  110.0000 1
220  3.618e-03 -2.559e-02  3.341e-03 -1.483e-02 -6.131e-03  3.503e-03  2.282e-08  1.967e-08  1.026e-09  1.004e-09 -4.342e-02   -0.1979    0.2439    0.1887    0.2475    0.1392    3.1416    3.1416 -1.518e-21  5.608e-24    3.1416 -1.518e-21  110.0000 1
221 -1.591e-02 -1.093e-02 -9.202e-03 -1.239e-03 -1.064e-02  7.738e-04  1.863e-08  2.625e-08  1.112e-09  1.169e-09  1.681e-02   -0.1270    0.1695 -6.577e-02   -0.2942    0.1340    3.1416    3.1416 -1.164e-20  8.915e-23    3.1416 -1.164e-20  110.0000 1
222  4.554e-03 -2.698e-03  8.216e-03  1.317e-02 -4.505e-03  1.089e-02  2.107e-08  2.006e-08  1.001e-09  8.835e-10   -0.1572   -0.4444 -6.781e-02   -0.4321   -0.3220   -0.1489    3.1416    3.1416 -1.328e-19 -3.321e-20    3.1416 -1.328e-19  110.0000 1
223  1.154e-02  1.045e-02 -3.280e-02 -4.743e-04 -8.703e-03 -1.501e-02  2.504e-08  2.133e-08  1.021e-09  1.045e-09    0.1085   -0.1158    0.1153    0.1605    0.1971    0.1306    3.1416    3.1416  2.368e-21  6.554e-25    3.1416  2.368e-21  110.0000 1
224 -1.241e-02 -1.650e-02  8.108e-04  1.481e-03 -9.673e-03 -4.204e-03  2.542e-08  1.951e-08  8.820e-10  9.355e-10    0.1917  6.090e-02   -0.5538    0.1813  8.767e-02   -0.2038    3.1416    3.1416 -1.492e-20 -1.294e-23    3.1416 -1.492e-20  110.0000 1
225 -1.392e-02  3.500e-02  1.406e-02  1.714e-02  1.772e-02  1.272e-02  1.986e-08  2.369e-08  8.263e-10  1.159e-09    0.2283   -0.9929   -0.3583    0.1241    0.3727  1.958e-02    3.1416    3.1416 -5.420e-20 -2.511e-21    3.1416 -5.420e-20  110.0000 1
226  1.289e-02 -1.404e-02 -3.269e-02 -2.078e-02  1.364e-03 -9.683e-03  2.228e-08  1.912e-08  9.172e-10  1.170e-09    0.4956   -0.3539    0.4830   -0.1229  3.434e-02    0.1551    3.1416    3.1416 -2.860e-22 -3.503e-22    3.1416 -2.860e-22  110.0000 1
227 -9.995e-03  3.407e-02  5.259e-03  6.694e-04 -2.768e-02 -4.000e-03  2.400e-08  2.563e-08  9.837e-10  8.547e-10    0.1695 -8.396e-02  4.715e-02    0.1439   -0.3860    0.1909    3.1416    3.1416  3.525e-19 -6.139e-27    3.1416  3.525e-19  110.0000 1
228  9.792e-03 -1.068e-02  4.654e-03  1.693e-03 -2.892e-03 -9.761e-03  2.179e-08  2.486e-08  9.883e-10  9.346e-10   -0.1400 -8.643e-02   -0.4864 -6.996e-02  7.634e-02  2.297e-02    3.1416    3.1416  1.269e-20 -4.355e-25    3.1416  1.269e-20  110.0000 1
229  1.300e-02  3.932e-03 -3.008e-02  4.927e-03 -6.249e-03 -2.270e-03  2.154e-08  2.317e-08  9.940e-10  9.237e-10   -0.3597   -0.2896    0.1927    0.1037  8.737e-02    0.1774    3.1416    3.1416 -5.183e-22 -5.512e-22    3.1416 -5.183e-22  110.0000 1
230  2.312e-02  7.987e-03  1.458e-02  8.550e-03 -1.612e-02  7.816e-03  1.925e-08  2.189e-08  9.941e-10  9.800e-10   -0.7870    0.1972    0.3932   -0.1985 -6.742e-03    0.2283    3.1416    3.1416  1.543e-19 -1.075e-24    3.1416  1.543e-19  110.0000 1
231 -7.288e-03  3.720e-02 -1.299e-02 -1.507e-02  3.284e-02  1.257e-02  2.601e-08  2.328e-08  1.131e-09  9.958e-10   -0.2436 -2.377e-02   -0.8834    0.4225   -0.3952    0.1597    0.7939    3.1416  1.066e-18    0.    3.1416  1.066e-18  110.0000 1
232 -1.040e-02  1.289e-02 -1.904e-02 -9.659e-03 -4.894e-03  2.684e-02  2.212e-08  2.455e-08  9.887e-10  9.906e-10    0.2652   -0.1103    0.3801    0.1339    0.4764  3.926e-02    3.1416    3.1416 -3.516e-22  2.538e-24    3.1416 -3.516e-22  110.0000 1
233 -1.137e-03 -1.931e-02  6.574e-03 -3.256e-02 -1.560e-02 -5.007e-03  2.114e-08  1.707e-08  1.189e-09  1.165e-09    0.1908    0.5421    0.6054  5.007e-02    0.2296  8.012e-02    3.1416    3.1416 -5.491e-20 -9.864e-25    3.1416 -5.491e-20  110.0000 1
234 -9.892e-03 -3.059e-02  1.761e-02  2.689e-03 -1.056e-02 -1.051e-03  1.854e-08  2.479e-08  8.996e-10  9.291e-10   -0.3333   -0.4954   -0.4322   -0.3455   -0.3733   -0.3944    3.1416    3.1416  1.990e-17 -2.448e-21    3.1416  1.990e-17  110.0000 1
235  7.902e-03 -1.065e-02  1.475e-02 -4.117e-02  4.936e-03  1.748e-02  1.973e-08  2.523e-08  8.932e-10  9.892e-10   -0.2142   -0.1757   -0.3639   -0.3226  5.906e-02   -0.4322    3.1416    3.1416  8.532e-21 -6.422e-21    3.1416  8.532e-21  110.0000 1
236  5.911e-03  1.331e-02  4.227e-03 -2.544e-02  1.887e-02 -1.338e-03  2.449e-08  2.010e-08  1.103e-09  1.077e-09   -0.1821    0.2884    0.4851   -0.1552   -0.4011    0.1205    3.1416    3.1416  1.438e-17 -2.058e-23    3.1416  1.438e-17  110.0000 1
237 -1.133e-02  1.192e-02  3.598e-03 -8.489e-03  3.116e-03  5.640e-03  2.141e-08  2.341e-08  8.276e-10  9.047e-10   -0.4088   -0.1822    0.4629    0.1423 -4.303e-02   -0.1914    3.1416    3.1416  9.419e-17 -3.747e-22    3.1416  9.419e-17  110.0000 1
238  2.750e-02  6.211e-03  1.912e-03  5.560e-04  1.036e-02 -2.496e-02  2.036e-08  2.355e-08  1.040e-09  1.088e-09    0.1663   -0.1849   -0.2758    0.7123    0.7490   -0.4125    3.1416    3.1416 -4.815e-19 -8.565e-20    3.1416 -4.815e-19  110.0000 1
239 -1.766e-02 -9.356e-03 -2.939e-02 -2.621e-02 -4.598e-03  2.200e-02  2.300e-08  1.988e-08  1.035e-09  9.543e-10   -0.6203   -0.2167    0.3394   -0.2177    0.4559    0.1795    3.1416    3.1416 -1.527e-19 -2.308e-22    3.1416 -1.527e-19  110.0000 1
240 -5.229e-04 -7.298e-03  2.577e-03  6.467e-03 -1.624e-03 -2.323e-02  1.842e-08  2.002e-08  1.091e-09  1.102e-09   -0.2426   -0.2366  3.530e-02    0.5306 -5.361e-02  7.587e-02    3.1416    3.1416 -5.861e-22 -2.050e-24    3.1416 -5.861e-22  110.0000 1
241 -1.510e-03  3.828e-02  1.575e-04 -2.092e-03  2.779e-02 -5.362e-03  2.296e-08  2.151e-08  8.110e-10  1.091e-09   -0.5804    0.3876  2.682e-02   -0.6447    0.1610    0.2845    3.1416    3.1416 -4.233e-21 -2.431e-21    3.1416 -4.233e-21  110.0000 1
242 -3.342e-03  1.489e-02  1.368e-02  2.459e-04 -1.128e-02  1.417e-03  2.294e-08  2.299e-08  9.832e-10  1.124e-09    0.2976  2.252e-02    0.1311   -0.2864   -0.2816   -0.4492    3.1416    3.1416 -2.671e-19 -4.770e-20    3.1416 -2.671e-19  110.0000 1
243  4.246e-03 -3.592e-04  4.681e-03  2.680e-03  1.098e-02 -5.090e-04  2.645e-08  2.104e-08  1.152e-09  1.162e-09  7.621e-02   -0.1553 -3.559e-02   -0.5261    0.4534    0.2400    0.9092    3.1416 -2.515e-22 -1.671e-21    3.1416 -2.515e-22  110.0000 1
244 -1.332e-02  3.477e-02 -1.651e-02  1.779e-02 -2.672e-03  8.474e-04  2.126e-08  1.814e-08  9.591e-10  1.101e-09 -8.859e-02    0.1831    0.3140   -0.3085   -0.3456    0.1381    3.1416    3.1416  9.393e-23  1.922e-21    3.1416  9.393e-23  110.0000 1
245 -2.550e-03  5.082e-02  7.574e-03 -2.036e-02 -2.282e-02  1.420e-02  2.158e-08  2.116e-08  9.984e-10  1.216e-09    0.1289   -0.2729   -0.3056   -0.1796    0.2126   -0.1897    3.1416    3.1416  1.547e-21 -1.022e-20    3.1416  1.547e-21  110.0000 1
246  2.630e-04 -5.771e-02  5.312e-04  1.379e-02 -2.076e-02  6.241e-03  2.452e-08  2.019e-08  1.021e-09  1.096e-09    0.1220    0.4843  3.612e-02   -0.2649 -2.363e-02 -6.124e-02    3.1416    3.1416 -2.041e-22 -7.267e-25    3.1416 -2.041e-22  110.0000 1
247  2.011e-02  3.611e-03  6.575e-03 -6.206e-03 -1.101e-02  6.999e-03  2.325e-08  2.313e-08  1.012e-09  1.050e-09   -0.2255    0.1668   -0.3585 -4.698e-02    0.4412   -0.2773    3.1416    3.1416  2.407e-19  1.265e-23    3.1416  2.407e-19  110.0000 1
248  1.500e-02  2.299e-02 -9.869e-03 -1.814e-02  1.340e-03  1.480e-02  2.186e-08  2.391e-08  8.992e-10  9.087e-10    0.3025  1.897e-02   -0.4987   -0.3806   -0.3961    0.7245    3.1416    3.1416  3.027e-20 -8.102e-24    3.1416  3.027e-20  110.0000 1
249 -1.180e-02  7.824e-03 -1.286e-02  1.333e-05  2.007e-02 -2.231e-02  1.928e-08  1.990e-08  1.016e-09  1.047e-09 -5.927e-02  6.462e-02   -0.3586   -0.2767    0.4640    0.3414    3.1416    3.1416 -1.845e-21 -1.293e-19    3.1416 -1.845e-21  110.0000 1
250  9.265e-04 -2.150e-02  1.016e-03  4.278e-03 -2.501e-03 -3.351e-02  2.177e-08  1.854e-08  1.057e-09  9.704e-10   -0.1173  7.114e-02    0.2093  4.685e-02    0.1472   -0.2003    3.1416    3.1416 -5.216e-21  4.443e-23    3.1416 -5.216e-21  110.0000 1
251 -1.790e-03 -8.842e-03  2.315e-02  1.652e-03  5.242e-03 -4.582e-03  2.036e-08  2.269e-08  1.015e-09  1.187e-09   -0.2453 -9.699e-02 -2.045e-02    0.2929  6.671e-02    0.2804    3.1416    3.1416  2.464e-21 -1.685e-22    3.1416  2.464e-21  110.0000 1
252 -2.101e-02  6.810e-03 -2.110e-02 -1.275e-02  2.308e-02  4.621e-03  2.267e-08  2.395e-08  9.002e-10  9.929e-10    0.5385  6.367e-02 -1.283e-02  6.917e-02   -0.5676    0.2019    3.1416    3.1416 -3.180e-20 -8.454e-20    3.1416 -3.180e-20  110.0000 1
253  2.433e-02 -1.115e-02 -2.863e-02  2.669e-03 -4.836e-03 -4.997e-03  2.110e-08  2.513e-08  9.512e-10  1.104e-09  9.327e-02   -0.2011  1.794e-02 -6.978e-03   -0.3562    0.1142    3.1416    3.1416 -7.432e-23 -9.979e-22    3.1416 -7.432e-23  110.0000 1
254  7.853e-03 -8.441e-03 -1.892e-03 -2.546e-02 -1.387e-02 -6.639e-03  2.010e-08  2.464e-08  8.492e-10  1.061e-09    0.2580   -0.1974    0.3357    0.1690   -0.6865    0.1105    3.1416    3.1416 -1.838e-18 -6.801e-22    3.1416 -1.838e-18  110.0000 1
255 -1.363e-02 -2.186e-02 -1.876e-02  6.443e-03  1.437e-03 -2.038e-02  2.320e-08  2.148e-08  1.027e-09  9.048e-10   -0.2403    0.3792  3.854e-02 -1.942e-02    0.2303  1.035e-02    3.1416    3.1416 -1.028e-18 -4.796e-23    3.1416 -1.028e-18  110.0000 1
256  1.505e-02 -2.374e-02  2.357e-02 -1.400e-02  9.482e-03  5.582e-03  2.024e-08  2.162e-08  9.192e-10  1.135e-09    0.2369    0.4681 -5.631e-02   -0.7551    0.2455   -0.4296    3.1416    3.1416 -3.796e-17  2.733e-24    3.1416 -3.796e-17  110.0000 1
257 -8.151e-03  2.563e-02 -6.006e-03  1.183e-02 -3.085e-03 -2.056e-02  2.219e-08  2.281e-08  9.699e-10  9.049e-10   -0.5417    0.1460   -0.5143    0.4626 -4.897e-04   -0.1102    3.1416    3.1416 -1.302e-16  1.942e-24    3.1416 -1.302e-16  110.0000 1
258  7.931e-03 -1.756e-02 -1.155e-02  7.779e-03 -1.344e-02  1.018e-02  2.491e-08  1.910e-08  9.409e-10  1.209e-09    0.6011  7.369e-02   -0.1662    0.1487   -0.2335   -0.2271    3.1416    3.1416  2.821e-19  5.278e-25    3.1416  2.821e-19  110.0000 1
259 -6.792e-03  4.449e-03 -1.877e-02 -1.252e-02  1.816e-02  1.009e-02  2.149e-08  2.205e-08  9.691e-10  1.005e-09  3.598e-02   -0.3051   -0.7708   -0.7865 -3.859e-02    0.5524    3.1416    3.1416 -2.852e-18 -5.172e-20    3.1416 -2.852e-18  110.0000 1
260 -1.499e-02 -4.228e-02 -3.325e-03 -2.117e-03  2.201e-02  9.138e-03  2.203e-08  1.986e-08  9.877e-10  1.094e-09  3.184e-03    0.3318    0.2884 -5.308e-02    0.2280    0.1312    3.1416    3.1416  2.745e-19  4.951e-20    3.1416  2.745e-19  110.0000 1
261 -1.627e-03 -4.626e-03  3.205e-03 -5.719e-03  1.045e-02 -4.168e-02  2.013e-08  1.778e-08  9.185e-10  9.345e-10   -0.8743   -0.2266    0.6699   -0.3853    0.2303    0.2393    3.1416    3.1416  9.820e-21  7.775e-22    3.1416  9.820e-21  110.0000 1
262  1.433e-02  4.177e-03  1.948e-03  1.492e-02 -1.241e-02 -1.848e-02  2.383e-08  2.009e-08  1.026e-09  8.498e-10    0.5269    0.2607    0.8143   -0.2030    0.2497    0.1651    3.1416    3.1416 -1.103e-20 -2.241e-23    3.1416 -1.103e-20  110.0000 1
263 -2.093e-02 -1.742e-02 -2.284e-02  1.364e-02  2.402e-02 -3.402e-02  2.516e-08  1.916e-08  1.139e-09  1.181e-09    0.2888    0.1023    0.2749  2.739e-03   -0.3166    0.2670    3.1416    3.1416  7.353e-20  1.464e-27    3.1416  7.353e-20  110.0000 1
264  9.626e-03 -2.355e-02 -8.089e-03  2.452e-02  4.317e-03 -2.578e-02  2.310e-08  2.095e-08  9.764e-10  8.302e-10    0.4879    0.1119   -0.6887    0.2480    0.3361   -0.2520    3.1416    3.1416  2.491e-17  5.719e-22    3.1416  2.491e-17  110.0000 1
265 -2.207e-02  9.629e-04  1.544e-02 -1.384e-02  3.775e-02  3.316e-02  2.055e-08  2.006e-08  1.006e-09  9.624e-10 -9.713e-02   -1.0021    0.4524    0.3473    0.1198   -0.1942    3.1416    3.1416 -4.366e-21 -7.635e-18    3.1416 -4.366e-21  110.0000 1
266 -5.450e-04  1.657e-02 -3.541e-03 -4.733e-03  7.575e-03 -1.118e-03  2.470e-08  2.191e-08  8.677e-10  1.046e-09 -5.266e-02    0.4435  8.183e-02    0.2709    0.2035   -0.2074    3.1416    3.1416 -4.790e-21 -2.757e-22    3.1416 -4.790e-21  110.0000 1
267 -4.066e-03  3.720e-02 -1.470e-03 -4.286e-03  3.561e-02 -5.383e-03  2.184e-08  2.175e-08  1.034e-09  1.097e-09  6.287e-02 -3.850e-03   -0.1341    0.3492 -5.004e-02    0.5123    3.1416    3.1416 -1.752e-19  1.389e-26    3.1416 -1.752e-19  110.0000 1
268 -7.257e-04  1.487e-02  4.534e-03 -2.773e-02 -5.184e-03  1.305e-02  2.195e-08  2.122e-08  9.415e-10  9.164e-10    0.1699 -7.214e-02    0.4277    0.1817   -0.6101  8.251e-02    3.1416    3.1416  1.049e-19 -3.999e-17    3.1416  1.049e-19  110.0000 1
269 -1.111e-02 -1.392e-02  1.741e-03 -1.469e-02 -7.131e-04  8.134e-03  1.913e-08  2.345e-08  1.018e-09  1.023e-09    0.4337    0.4528    0.1069    0.3321    0.3881  2.742e-02    3.1416    3.1416 -2.987e-23  6.256e-24    3.1416 -2.987e-23  110.0000 1
270  6.925e-03 -1.208e-02 -1.890e-02 -5.006e-03 -3.872e-02 -1.408e-02  2.082e-08  1.971e-08  1.089e-09  1.131e-09   -0.3877    0.5020   -0.4837   -0.4853   -0.6118    0.4258    3.1416    3.1416  5.749e-20  6.543e-23    3.1416  5.749e-20  110.0000 1
271 -1.182e-02 -4.296e-02  1.745e-02 -8.092e-04 -5.165e-03 -5.642e-03  2.625e-08  2.184e-08  1.070e-09  1.077e-09   -0.4727    0.4444 -9.208e-03   -0.8533  8.692e-02    0.3513    3.1416    3.1416 -2.258e-20 -1.683e-24    3.1416 -2.258e-20  110.0000 1
272 -1.248e-02  2.256e-03  3.685e-02 -1.786e-02  1.705e-02  8.355e-03  2.244e-08  1.753e-08  1.116e-09  1.174e-09   -0.3628 -8.759e-02   -0.2032    0.1291   -0.4378   -0.1167    3.1416    3.1416  1.270e-21  2.231e-24    3.1416  1.270e-21  110.0000 1
273 -1.198e-02  7.970e-03  7.760e-03 -1.501e-02 -5.628e-03  2.202e-02  2.433e-08  1.785e-08  1.131e-09  1.098e-09   -0.5890    0.5016    0.1999   -0.2851   -0.2990    0.3062    3.1416    3.1416  1.819e-20  3.511e-27    3.1416  1.819e-20  110.0000 1
274 -1.636e-02  2.071e-02  3.740e-02  1.400e-02  4.812e-03  1.399e-02  2.451e-08  2.590e-08  1.084e-09  9.418e-10  4.086e-02    0.3527    0.4327    0.1359    0.6570   -0.5566    3.1416    3.1416  1.501e-23    0.    3.1416  1.501e-23  110.0000 1
275  1.152e-02 -1.795e-02  8.041e-03  1.033e-02  8.454e-03 -1.768e-02  2.277e-08  2.447e-08  9.423e-10  1.056e-09  4.463e-02    0.1088   -0.2683    0.1069  3.312e-02   -0.4556    3.1416    3.1416  5.397e-19  2.200e-22    3.1416  5.397e-19  110.0000 1
276 -1.351e-02 -1.534e-02 -4.876e-03  1.520e-02  3.117e-03  1.074e-03  2.273e-08  2.510e-08  9.578e-10  1.103e-09    0.3618   -0.7590  3.504e-02   -0.1784    0.1592   -0.1404    3.1416    3.1416 -4.760e-22  1.406e-23    3.1416 -4.760e-22  110.0000 1
277 -7.181e-03  3.393e-03  1.814e-02 -7.688e-03 -8.643e-03  2.305e-02  2.514e-08  2.353e-08  1.037e-09  1.057e-09    0.4413   -0.1727    0.1888    0.1064   -0.5621   -0.1311    3.1416    3.1416 -3.258e-19 -1.439e-26    3.1416 -3.258e-19  110.0000 1
278  2.157e-03 -1.385e-02  8.292e-04 -2.988e-03 -7.872e-03  1.216e-02  2.247e-08  2.096e-08  9.140e-10  1.041e-09    0.1844    0.3480   -0.2485   -0.1441    0.3556    0.3525    3.1416    3.1416 -9.302e-23 -1.852e-22    3.1416 -9.302e-23  110.0000 1
279 -1.877e-02 -1.228e-03 -3.658e-02 -6.583e-03 -8.288e-04 -8.708e-03  2.124e-08  1.654e-08  1.006e-09  1.021e-09   -0.3284   -0.2861    0.1336 -7.173e-02   -0.1274  6.904e-02    3.1416    3.1416  5.522e-17 -1.370e-22    3.1416  5.522e-17  110.0000 1
280  1.110e-02  2.724e-02 -2.855e-03  7.304e-03 -5.108e-03  1.043e-02  2.035e-08  2.261e-08  9.700e-10  1.060e-09    0.4163    0.1250    0.4180    0.5413   -0.4357  1.479e-03    3.1416    3.1416  1.536e-21 -7.669e-21    3.1416  1.536e-21  110.0000 1
281  7.624e-04 -1.502e-02  1.408e-05 -1.064e-02 -9.004e-03 -2.108e-02  2.304e-08  2.418e-08  9.729e-10  1.048e-09   -0.6908  1.597e-02 -1.430e-03  8.963e-03   -0.1367 -6.526e-02    3.1416    3.1416 -4.943e-19  1.503e-22    3.1416 -4.943e-19  110.0000 1
282 -3.538e-02 -2.019e-02  1.976e-02 -2.658e-02  9.204e-03 -3.603e-02  2.102e-08  1.881e-08  1.036e-09  8.436e-10  4.651e-02   -0.2530   -0.2090   -0.8556    0.3790    0.2918    3.1416    3.1416 -9.765e-21 -2.762e-25    3.1416 -9.765e-21  110.0000 1
283 -7.032e-04 -9.775e-03  2.046e-02 -1.658e-02  1.102e-02  1.571e-02  2.195e-08  2.228e-08  9.424e-10  9.891e-10   -0.6718    0.3508   -0.1906    0.3027  7.752e-02    0.2115    3.1416    3.1416  1.689e-19 -8.839e-23    3.1416  1.689e-19  110.0000 1
284 -2.730e-02  1.964e-03 -8.879e-03  5.056e-03  1.703e-02  1.240e-02  1.760e-08  1.823e-08  1.056e-09  1.171e-09    0.3665   -0.5094    0.5376   -0.4970   -0.1676   -0.2520    3.1416    3.1416  3.115e-19 -1.771e-20    3.1416  3.115e-19  110.0000 1
285  7.300e-03 -5.197e-03  1.053e-03  1.425e-02  1.828e-03 -2.318e-02  2.534e-08  1.930e-08  1.102e-09  9.524e-10   -0.4550 -1.290e-02  5.003e-02   -0.2997 -6.277e-02  7.366e-02    3.1416    3.1416  1.553e-19  5.645e-28    3.1416  1.553e-19  110.0000 1
286 -1.532e-02 -9.439e-03 -9.974e-03  1.166e-02  1.365e-02  5.835e-03  2.321e-08  2.373e-08  9.300e-10  9.581e-10    0.2950    0.1315    0.3018    0.4569    0.1215    0.3774    3.1416    3.1416  2.526e-18 -1.108e-24    3.1416  2.526e-18  110.0000 1
287  2.641e-02 -3.173e-02  7.014e-03  1.794e-02  7.584e-03 -1.760e-02  1.996e-08  2.339e-08  1.047e-09  9.626e-10   -0.3692    0.1664  3.460e-02   -0.5301    0.2826   -0.3657    3.1416    3.1416  4.103e-18  3.111e-21    3.1416  4.103e-18  110.0000 1
288 -3.432e-02 -2.079e-02  1.937e-02 -3.811e-03  7.918e-03  3.792e-03  1.952e-08  2.269e-08  1.138e-09  1.156e-09   -0.6751  6.723e-02    0.2449  4.762e-02   -0.1315   -0.3095    3.1416    3.1416 -6.486e-21  9.405e-22    3.1416 -6.486e-21  110.0000 1
289 -2.669e-02 -1.406e-02 -8.726e-03 -1.254e-02 -2.822e-02 -2.416e-04  2.098e-08  2.111e-08  9.140e-10  1.003e-09   -0.2089    0.2767   -0.4498   -0.7102 -2.878e-02 -3.306e-02    3.1416    3.1416 -5.373e-22  1.198e-16    3.1416 -5.373e-22  110.0000 1
290 -1.193e-02 -1.522e-02  1.188e-02 -2.651e-02 -1.398e-02 -2.955e-02  2.597e-08  2.070e-08  9.731e-10  1.063e-09   -0.1131    0.4328    0.3077  4.652e-02    0.2339   -0.6293    3.1416    3.1416  2.088e-19 -6.537e-22    3.1416  2.088e-19  110.0000 1
291  1.403e-02 -2.591e-02 -2.032e-03  3.126e-02 -1.476e-03  1.703e-02  1.938e-08  2.592e-08  9.014e-10  9.324e-10    0.4065   -0.2989   -0.6531    0.6262   -0.3759   -0.3708    3.1416    3.1416  3.722e-20 -1.852e-23    3.1416  3.722e-20  110.0000 1
292 -1.380e-02  1.649e-02  1.042e-02  2.057e-03 -5.526e-03  3.258e-03  2.092e-08  2.439e-08  8.045e-10  8.837e-10   -0.2968    0.2248    0.1610    0.1792   -0.8589 -7.492e-02    3.1416    3.1416  8.677e-21  3.299e-22    3.1416  8.677e-21  110.0000 1
293 -3.304e-03 -6.316e-03  8.026e-03 -3.430e-03 -1.314e-02  4.860e-04  1.856e-08  2.117e-08  1.012e-09  1.031e-09    0.3816    0.1162    0.1345   -0.3014   -0.4020   -0.2019    3.1416    3.1416  6.034e-20 -3.438e-22    3.1416  6.034e-20  110.0000 1
294  9.963e-03 -2.423e-02  1.265e-02  4.737e-03 -4.679e-02 -2.310e-02  2.042e-08  2.271e-08  1.172e-09  1.117e-09   -0.1968  5.675e-02 -5.616e-02   -0.7108   -0.5268  3.120e-02    3.1416    3.1416 -4.785e-18  4.512e-24    3.1416 -4.785e-18  110.0000 1
295  1.398e-03  7.792e-03 -2.076e-02  1.876e-03  2.354e-03  2.033e-03  1.938e-08  2.151e-08  9.942e-10  1.093e-09 -3.289e-03   -0.8056    0.4227 -3.654e-02    0.6524   -0.1641    3.1416    3.1416  2.528e-18 -1.765e-19    3.1416  2.528e-18  110.0000 1
296  2.338e-02 -6.798e-03  1.163e-02  3.780e-02  1.844e-03 -1.580e-02  2.214e-08  2.126e-08  1.064e-09  7.669e-10   -0.2756   -0.8566    0.3242    0.7639    0.4364   -0.1497    3.1416    3.1416  5.976e-18  2.091e-26    3.1416  5.976e-18  110.0000 1
297  1.215e-02  3.841e-02 -2.047e-02  9.055e-03 -2.506e-03  1.534e-03  2.729e-08  2.177e-08  8.784e-10  9.890e-10   -0.2811    0.5582    0.3063 -2.780e-03 -5.519e-02    0.1828    3.1416    3.1416  3.924e-17  1.360e-25    3.1416  3.924e-17  110.0000 1
298  1.577e-02 -3.609e-02 -2.580e-02 -7.597e-03 -1.513e-02 -9.865e-03  2.555e-08  2.455e-08  1.063e-09  9.413e-10 -9.601e-02 -7.295e-02    0.4895    0.3354   -0.1523    0.3046    3.1416    3.1416  1.016e-19  9.259e-28    3.1416  1.016e-19  110.0000 1
299  7.314e-03 -5.289e-03  6.585e-03 -1.037e-02 -1.197e-02  1.222e-02  2.183e-08  2.058e-08  9.414e-10  1.113e-09   -0.4590   -0.6892   -0.6436    0.1720    0.3836   -0.2187    3.1416    3.1416  3.593e-17 -7.945e-16    3.1416  3.593e-17  110.0000 1
300  1.695e-02  1.192e-02 -1.673e-02 -3.816e-02  1.582e-02 -2.823e-03  2.311e-08  2.177e-08  1.040e-09  9.709e-10  5.073e-02    0.1636    0.8416    1.0300    0.1508    0.2788    3.1416    3.1416  9.610e-21  1.467e-24    3.1416  9.610e-21  110.0000 1
301  7.845e-03  5.527e-03  3.703e-03  5.854e-03  5.617e-02  2.277e-02  1.960e-08  1.749e-08  1.036e-09  9.678e-10   -0.5463   -0.2480    0.2864    0.2184   -0.1027   -0.4263    3.1416    3.1416 -1.754e-23  6.726e-21    3.1416 -1.754e-23  110.0000 1
302  1.754e-02  2.434e-03 -4.826e-03  6.000e-03  1.953e-02 -8.167e-03  2.063e-08  2.286e-08  9.212e-10  8.711e-10    0.3749   -0.2452 -3.902e-03   -0.1036   -0.1029   -0.4213    3.1416    3.1416 -1.202e-19 -1.013e-19    3.1416 -1.202e-19  110.0000 1
303 -2.919e-02  7.483e-03 -1.807e-02  1.629e-02  4.880e-03  1.385e-02  1.986e-08  2.037e-08  9.658e-10  9.310e-10    0.4954 -5.520e-02    0.1403 -8.356e-02    0.3718 -5.647e-02    3.1416    3.1416  1.180e-18 -9.265e-23    3.1416  1.180e-18  110.0000 1
304 -1.270e-02  1.738e-02  5.368e-03  1.971e-03 -4.352e-03 -1.523e-02  2.279e-08  2.608e-08  7.256e-10  1.010e-09   -0.3059    0.7043   -0.7656   -0.5046   -0.1740    0.5861    3.1416    3.1416 -8.014e-21 -2.892e-18    3.1416 -8.014e-21  110.0000 1
305  6.516e-03  6.634e-03 -1.808e-04  4.823e-03 -1.213e-03  1.523e-02  2.204e-08  2.237e-08  9.458e-10  9.973e-10   -0.1356    0.3745  7.621e-02  4.672e-02   -0.2606    0.2002    3.1416    3.1416 -8.871e-21 -6.132e-21    3.1416 -8.871e-21  110.0000 1
306 -1.711e-02 -3.265e-02  7.946e-04 -2.214e-02  1.965e-02 -1.661e-03  2.128e-08  1.831e-08  8.484e-10  7.860e-10 -9.562e-02 -9.294e-04    0.1444 -7.637e-02 -7.019e-02 -2.623e-03    3.1416    3.1416 -1.618e-20 -4.537e-23    3.1416 -1.618e-20  110.0000 1
307  2.879e-03  2.166e-02 -8.575e-03 -1.550e-02 -4.812e-02  2.426e-02  2.691e-08  2.048e-08  1.106e-09  1.066e-09    0.2815  2.221e-02 -2.017e-03    0.6156 -7.279e-02    0.1824    0.9016    3.1416  2.389e-21  3.944e-22    3.1416  2.389e-21  110.0000 1
308  1.130e-02  3.317e-02 -1.022e-02  6.483e-03  7.373e-03 -1.275e-02  1.993e-08  2.014e-08  1.021e-09  9.262e-10    0.1969   -0.1598    0.1145    0.3364    0.5321 -4.406e-02    3.1416    3.1416  6.515e-20 -4.150e-24    3.1416  6.515e-20  110.0000 1
309  9.828e-04 -1.396e-02  2.883e-03 -3.758e-03  1.688e-02  5.267e-04  2.119e-08  2.565e-08  1.091e-09  9.712e-10 -7.010e-02   -0.3188   -0.2056   -0.1694   -0.2436   -0.2634    3.1416    3.1416  9.120e-25  1.294e-21    3.1416  9.120e-25  110.0000 1
310  9.846e-03 -4.565e-03  1.589e-02  1.414e-02 -2.560e-02 -1.441e-03  2.466e-08  2.467e-08  9.331e-10  7.635e-10   -0.1847   -0.3703    0.1852    0.1299   -0.2554   -0.1064    3.1416    3.1416 -8.012e-21    0.    3.1416 -8.012e-21  110.0000 1
311 -1.377e-02 -9.339e-03  7.766e-03  2.278e-02 -1.727e-02  2.734e-02  2.445e-08  2.027e-08  9.242e-10  1.004e-09    0.2320   -0.1688    0.6605    0.2466   -0.7137    0.4729    3.1416    3.1416  3.192e-19  7.999e-26    3.1416  3.192e-19  110.0000 1
312  2.702e-02 -2.782e-02  1.332e-02 -2.306e-02  8.036e-03 -2.773e-02  2.158e-08  2.442e-08  9.079e-10  9.183e-10    0.3445   -0.1773   -0.3194 -7.541e-02    0.3675  6.700e-02    3.1416    3.1416 -1.220e-17 -1.569e-21    3.1416 -1.220e-17  110.0000 1
313 -3.889e-02  1.447e-02  2.170e-02 -9.561e-03 -3.744e-02 -4.752e-03  2.403e-08  2.290e-08  9.448e-10  9.977e-10  4.990e-02   -0.2142    0.5768  2.203e-02   -0.1062  7.723e-02    3.1416    3.1416  1.571e-18 -7.331e-22    3.1416  1.571e-18  110.0000 1
314 -2.381e-04 -1.463e-04 -1.229e-02 -3.578e-02  1.247e-02 -3.368e-03  2.465e-08  2.049e-08  1.091e-09  9.008e-10    0.2724  9.595e-02   -0.1300    0.6276   -0.2051    0.3596    3.1416    3.1416 -1.666e-19  6.666e-25    3.1416 -1.666e-19  110.0000 1
315 -8.082e-03 -3.077e-04 -3.176e-02 -2.565e-02 -5.976e-03 -1.731e-02  1.899e-08  2.018e-08  1.068e-09  1.019e-09   -0.3649    0.1369 -3.017e-02    0.1531    0.1904   -0.4701    3.1416    3.1416  4.552e-18 -8.697e-24    3.1416  4.552e-18  110.0000 1
316 -6.839e-03 -9.122e-03  3.138e-03  1.424e-02  3.881e-04 -1.454e-02  2.488e-08  2.189e-08  1.091e-09  1.067e-09   -0.5232    0.2450    1.0612    0.1700   -0.1896    0.2818    3.1416    3.1416  3.304e-17 -6.478e-24    3.1416  3.304e-17  110.0000 1
317 -2.091e-02  5.994e-03 -1.162e-02 -3.020e-02 -1.144e-02  9.485e-03  1.870e-08  2.437e-08  9.480e-10  9.654e-10    0.1446   -0.1275   -0.5645    0.5050    0.5769   -0.4686    3.1416    3.1416 -3.239e-21 -2.001e-23    3.1416 -3.239e-21  110.0000 1
[...]
921  9.802e-03  1.681e-02  1.841e-03 -2.924e-02  2.099e-02  2.816e-02  2.166e-08  2.349e-08  1.056e-09  1.092e-09   -0.1083    0.1142   -0.3107 -1.620e-02 -8.404e-02 -4.648e-02    3.1416    3.1416 -4.100e-21 -3.339e-22    3.1416 -4.100e-21  110.0000 1
922 -3.011e-02 -1.728e-02  3.071e-04  5.937e-03  5.720e-03  2.644e-02  2.256e-08  1.889e-08  8.528e-10  1.004e-09  3.453e-02   -0.3709    0.3514 -2.548e-02   -0.7012    0.2188    3.1416    3.1416 -4.914e-21  1.453e-19    3.1416 -4.914e-21  110.0000 1
923 -3.353e-03 -2.170e-02 -2.149e-02  3.880e-03 -9.432e-05 -4.662e-03  2.225e-08  2.627e-08  1.181e-09  1.099e-09   -0.3769   -0.1375    0.2632   -0.1766    0.2242   -0.5703    3.1416    3.1416  5.268e-23    0.    3.1416  5.268e-23  110.0000 1
924 -1.252e-03 -9.941e-03  7.334e-03  1.128e-02 -1.909e-02 -4.164e-03  2.340e-08  1.858e-08  1.027e-09  1.029e-09    0.4264   -0.2522   -0.1680    0.2247   -0.2664   -0.3331    3.1416    3.1416 -4.126e-21  2.326e-21    3.1416 -4.126e-21  110.0000 1
925 -1.240e-02  1.508e-03  4.847e-04 -2.719e-02  9.618e-03  1.843e-02  2.063e-08  1.822e-08  1.018e-09  9.623e-10    0.2351    0.2206   -0.4404   -0.2672    0.2428    0.2984    3.1416    3.1416  4.085e-19 -3.227e-22    3.1416  4.085e-19  110.0000 1
926 -8.051e-03  3.648e-02  2.328e-02 -1.749e-02 -8.853e-04 -7.726e-03  2.305e-08  2.051e-08  1.139e-09  9.603e-10    0.2489    0.3889   -0.2024    0.1067   -0.3856   -0.3578    3.1416    3.1416  2.681e-20 -2.749e-22    3.1416  2.681e-20  110.0000 1
927 -6.494e-03 -2.100e-02  1.131e-02  2.103e-02 -1.697e-02  7.541e-03  2.076e-08  1.964e-08  8.949e-10  1.040e-09    0.5955   -0.3373    0.3044   -0.4099 -9.648e-02   -0.3648    3.1416    3.1416 -1.768e-17 -4.478e-24    3.1416 -1.768e-17  110.0000 1
928  3.633e-02 -2.169e-02 -6.402e-03 -2.108e-02  8.975e-03  6.160e-03  2.505e-08  2.120e-08  9.728e-10  9.867e-10   -0.4586  9.352e-02    0.4552   -0.2909  7.389e-02    0.4239    3.1416    3.1416  3.564e-20  1.956e-23    3.1416  3.564e-20  110.0000 1
929 -4.451e-03 -8.048e-04 -2.391e-02 -2.103e-02  1.375e-03  2.182e-02  2.440e-08  1.955e-08  1.116e-09  8.969e-10   -0.2146    0.1571   -0.3633 -1.668e-02 -3.590e-02   -0.1551    3.1416    3.1416 -3.745e-22 -1.479e-26    3.1416 -3.745e-22  110.0000 1
930  9.271e-03 -8.324e-04 -1.335e-02 -1.644e-02 -4.243e-04  7.589e-03  2.289e-08  2.251e-08  9.768e-10  1.023e-09 -2.642e-02   -0.4571   -0.1992   -0.4841    0.2194  7.877e-02    3.1416    3.1416  2.617e-19  3.769e-24    3.1416  2.617e-19  110.0000 1
931 -2.514e-03  2.688e-02  1.059e-02 -1.385e-03 -6.247e-03 -1.513e-03  2.083e-08  2.416e-08  1.063e-09  9.692e-10    0.2998    0.8006   -0.1843 -5.118e-03    0.8290   -0.1931    3.1416    3.1416 -3.033e-21 -9.794e-22    3.1416 -3.033e-21  110.0000 1
932 -3.156e-02  2.215e-03  2.748e-03 -1.363e-02  6.431e-03  1.895e-03  2.367e-08  1.973e-08  9.375e-10  1.002e-09    0.7017    0.5329    0.2305    0.1109   -0.4804   -0.2288    3.1416    3.1416  9.054e-22  6.497e-21    3.1416  9.054e-22  110.0000 1
933 -6.241e-03 -1.176e-04  1.436e-02 -2.118e-02 -4.297e-03  1.598e-02  2.655e-08  2.428e-08  9.603e-10  9.586e-10    0.6294    0.4953    0.1754 -5.262e-02    0.5511 -2.096e-02    3.1416    3.1416  1.436e-19  1.096e-27    3.1416  1.436e-19  110.0000 1
934  2.452e-02  2.603e-02 -1.489e-02 -9.211e-03  1.388e-02  1.715e-02  2.491e-08  2.369e-08  1.177e-09  8.561e-10   -0.3393    0.5423    0.5926    0.3589    0.7162    0.3767    0.7538    3.1416 -2.691e-16    0.    3.1416 -2.691e-16  110.0000 1
935  7.242e-03  2.982e-02 -2.804e-02 -1.756e-02  2.260e-02  6.869e-03  2.411e-08  2.442e-08  9.633e-10  1.183e-09   -0.2620   -0.1859    0.1340    0.2629    0.2008    0.4329    3.1416    3.1416  9.549e-20 -7.995e-23    0.7778  9.549e-20  110.0000 1
936  6.065e-03  3.851e-03  1.012e-02 -2.119e-02  8.494e-03 -1.850e-02  2.511e-08  2.091e-08  9.312e-10  1.065e-09   -0.3504  2.094e-02   -0.1087  2.100e-02   -0.1198    0.6935    3.1416    3.1416  4.120e-19 -6.982e-25    3.1416  4.120e-19  110.0000 1
937 -1.441e-02  2.052e-02 -1.886e-02  1.486e-02 -5.386e-03  1.705e-03  2.158e-08  2.420e-08  9.553e-10  9.650e-10  8.840e-02    0.6597 -7.435e-02 -1.460e-03    0.4742    0.6367    3.1416    3.1416  1.654e-20 -8.449e-25    3.1416  1.654e-20  110.0000 1
938 -8.015e-06  5.236e-03 -2.262e-02  1.868e-02  2.059e-03 -1.481e-03  2.491e-08  2.345e-08  1.093e-09  9.997e-10    0.5338   -0.2607   -0.5263    0.1250   -0.1014    0.4601    3.1416    3.1416  4.808e-19    0.    3.1416  4.808e-19  110.0000 1
939 -2.124e-02  3.336e-02 -6.393e-03 -1.116e-02  1.717e-02 -1.053e-02  2.498e-08  2.318e-08  9.813e-10  8.657e-10   -0.7115 -5.936e-02   -0.1941   -0.1719   -0.4552  4.523e-02    3.1416    3.1416  5.042e-22 -2.011e-25    3.1416  5.042e-22  110.0000 1
940  1.071e-02 -1.181e-02  2.667e-03 -3.350e-02 -1.093e-02  1.112e-02  2.310e-08  1.849e-08  9.251e-10  9.929e-10  1.292e-02 -8.979e-02    0.1809   -0.1153  2.430e-02   -0.1653    3.1416    3.1416 -1.515e-21 -6.365e-22    3.1416 -1.515e-21  110.0000 1
941 -5.278e-03  2.128e-02 -7.738e-03  3.001e-02 -2.028e-03  4.470e-03  2.036e-08  2.001e-08  9.912e-10  1.028e-09   -0.6959    0.4012    0.3751   -0.3416    0.1590   -0.1082    3.1416    3.1416  5.599e-21  1.492e-22    3.1416  5.599e-21  110.0000 1
942  1.118e-02 -9.368e-05  1.294e-02 -2.294e-02 -7.551e-03  1.619e-02  2.542e-08  2.006e-08  1.114e-09  9.724e-10 -8.629e-02    0.2829    0.3498   -0.1268    0.4347   -0.4003    3.1416    3.1416  9.742e-18    0.    3.1416  9.742e-18  110.0000 1
943 -1.358e-02  8.610e-03  2.185e-02  7.176e-03 -2.615e-02 -1.678e-02  2.153e-08  2.462e-08  9.273e-10  1.052e-09   -0.5789 -6.160e-02   -0.3024    0.2957   -0.3467    0.2319    3.1416    3.1416 -4.986e-16  5.147e-23    3.1416 -4.986e-16  110.0000 1
944 -1.022e-02  3.909e-03  2.629e-02 -2.165e-02  1.108e-03 -1.230e-02  2.723e-08  2.278e-08  1.208e-09  9.723e-10  1.549e-03   -0.4028   -0.1047    0.5471   -0.9583    0.3169    0.6872    3.1416 -3.424e-20    0.    3.1416 -3.424e-20  110.0000 1
945  9.023e-04  3.063e-03  2.755e-02  1.802e-02 -9.300e-03  1.335e-02  2.661e-08  2.300e-08  1.082e-09  1.005e-09   -0.3209 -7.628e-02  8.016e-03   -0.1993   -0.5079    0.1537    0.9834    3.1416 -1.177e-16  5.123e-20    3.1416 -1.177e-16  110.0000 1
946 -1.153e-02 -2.415e-02  1.136e-02  8.282e-03 -5.549e-03  5.106e-03  2.139e-08  2.189e-08  9.570e-10  9.430e-10  8.491e-02    0.5435    0.5282   -0.4493   -0.4127   -0.1258    3.1416    3.1416  6.168e-22 -2.291e-21    3.1416  6.168e-22  110.0000 1
947 -3.782e-03  2.189e-02 -6.498e-03 -2.753e-02  6.726e-03  6.938e-03  2.535e-08  2.155e-08  1.036e-09  1.013e-09    0.3496    0.2904  8.685e-02   -0.1690 -3.057e-02   -0.4217    3.1416    3.1416  9.404e-19  6.848e-26    3.1416  9.404e-19  110.0000 1
948 -8.179e-03 -2.643e-02 -2.128e-02 -4.687e-03  2.401e-02 -9.216e-03  1.905e-08  2.024e-08  1.075e-09  1.165e-09    0.1072    0.4013 -3.215e-02 -3.111e-02    0.6337    0.1169    3.1416    3.1416 -2.578e-19  9.168e-23    3.1416 -2.578e-19  110.0000 1
949 -6.258e-03 -6.314e-04  1.074e-02 -5.247e-03  1.284e-02  3.727e-03  2.252e-08  1.938e-08  1.101e-09  8.348e-10   -0.4324 -4.586e-02   -0.1271   -0.2590    0.4441    0.5942    3.1416    3.1416 -1.567e-19 -1.446e-27    3.1416 -1.567e-19  110.0000 1
950  2.553e-02  1.744e-02 -6.696e-03 -1.478e-02 -4.409e-03  7.237e-03  1.884e-08  2.256e-08  9.869e-10  1.054e-09    0.1597   -0.3201 -2.996e-02   -0.1058    0.5761    0.2813    3.1416    3.1416  3.483e-20  1.148e-21    3.1416  3.483e-20  110.0000 1
951  1.662e-02  1.824e-03 -1.854e-02  1.534e-02  1.965e-02  1.821e-03  2.456e-08  2.190e-08  8.399e-10  9.709e-10   -0.1669    0.1246   -0.3671    0.1355   -0.2579  5.221e-02    3.1416    3.1416 -1.078e-21 -2.008e-20    3.1416 -1.078e-21  110.0000 1
952  5.494e-03  9.866e-03  1.610e-02 -1.550e-02 -1.484e-02  1.671e-02  2.086e-08  2.088e-08  9.921e-10  9.943e-10   -0.3482    0.4086  3.281e-02 -8.192e-02   -0.3814   -0.6207    3.1416    3.1416  4.380e-20 -1.059e-21    3.1416  4.380e-20  110.0000 1
953  4.146e-04  1.630e-02  3.855e-02 -4.992e-03 -9.635e-03 -2.486e-03  1.893e-08  1.893e-08  1.201e-09  1.114e-09    0.2819   -0.4648    0.1217    0.7048   -0.1078  2.519e-02    3.1416    3.1416 -7.042e-22 -7.485e-23    3.1416 -7.042e-22  110.0000 1
954  1.524e-02 -3.680e-03 -2.225e-03 -2.478e-03 -6.721e-03  1.517e-02  2.061e-08  1.902e-08  1.063e-09  1.015e-09 -3.721e-02    0.3328    0.4446    0.3666   -0.1371   -0.1557    3.1416    3.1416 -2.989e-21  9.055e-23    3.1416 -2.989e-21  110.0000 1
955 -3.674e-02  1.331e-02  4.979e-03  1.665e-02  2.010e-02  7.847e-04  2.047e-08  1.930e-08  1.151e-09  9.623e-10   -0.6387  4.902e-02    0.2417   -0.4802 -8.316e-02   -0.1724    3.1416    3.1416  8.675e-17  7.287e-25    3.1416  8.675e-17  110.0000 1
956 -1.516e-02  5.400e-03  4.451e-03 -3.593e-03 -1.075e-02 -2.167e-02  1.860e-08  2.122e-08  1.022e-09  8.929e-10 -7.327e-02   -0.6637    0.3506   -0.2557 -2.631e-02  3.579e-02    3.1416    3.1416  3.676e-17  4.817e-24    3.1416  3.676e-17  110.0000 1
957 -1.116e-02  1.662e-02 -1.876e-02 -1.846e-02  1.787e-04  8.739e-03  2.272e-08  2.382e-08  8.662e-10  1.228e-09    0.5279   -0.1671    0.1094   -0.4024 -5.623e-02    0.2043    3.1416    3.1416  1.682e-20  7.151e-19    0.7831  1.682e-20  110.0000 1
958 -4.491e-03  3.917e-03 -3.970e-03  3.208e-03  1.046e-02  1.941e-02  2.308e-08  2.055e-08  1.072e-09  8.848e-10   -0.5731   -0.3663   -0.1761   -0.2523  6.091e-02   -0.3237    3.1416    3.1416  1.510e-17  2.659e-23    3.1416  1.510e-17  110.0000 1
959  1.677e-02 -1.765e-04 -1.630e-02 -2.269e-02 -1.368e-02 -1.304e-03  2.168e-08  2.579e-08  9.817e-10  1.080e-09    0.2036   -0.6158    0.1654    0.3076   -0.3099    0.2366    3.1416    3.1416 -1.095e-19 -5.110e-24    3.1416 -1.095e-19  110.0000 1
960  6.800e-03 -4.893e-03 -1.395e-02 -1.202e-02  9.756e-03  1.676e-02  2.253e-08  2.444e-08  9.389e-10  9.772e-10   -0.1053    0.6118    0.3321   -0.1778    0.2948   -0.6884    3.1416    3.1416  8.766e-20  8.191e-19    3.1416  8.766e-20  110.0000 1
961  1.296e-02  5.847e-03 -3.618e-03 -1.358e-02  4.791e-03  9.184e-03  1.707e-08  2.341e-08  8.802e-10  1.031e-09   -0.1599   -0.4269   -0.1846    0.5672    0.3276   -0.2450    3.1416    3.1416  2.029e-21 -2.311e-22    3.1416  2.029e-21  110.0000 1
962  1.073e-02  2.950e-02  1.792e-03 -4.220e-03 -2.918e-02  1.007e-02  2.242e-08  2.693e-08  1.017e-09  1.034e-09   -0.2073 -9.677e-05   -0.2209  3.546e-02   -0.1849  9.640e-02    3.1416    3.1416  1.755e-17 -4.050e-23    3.1416  1.755e-17  110.0000 1
963  6.449e-04 -1.144e-02  6.640e-03 -4.495e-03 -6.145e-04 -1.490e-02  2.148e-08  2.265e-08  1.107e-09  8.417e-10    0.7058    0.4830   -0.1131    0.3741 -1.534e-02   -0.4566    3.1416    3.1416  4.566e-17 -2.852e-22    3.1416  4.566e-17  110.0000 1
964 -1.899e-02 -1.737e-02 -1.350e-02 -1.241e-02 -9.689e-03  1.308e-02  1.971e-08  2.417e-08  1.001e-09  8.972e-10    0.6737    0.1838    0.3375    0.1621    0.6377   -0.2031    3.1416    3.1416  4.175e-20 -2.087e-20    3.1416  4.175e-20  110.0000 1
965  8.657e-03 -8.517e-03 -2.035e-02  3.569e-02  1.026e-03  3.062e-02  2.172e-08  2.475e-08  1.075e-09  1.079e-09   -0.1477   -0.2022  3.536e-03    0.2726    0.4968   -0.2278    3.1416    3.1416  2.353e-20  1.684e-24    3.1416  2.353e-20  110.0000 1
966  2.128e-03  4.377e-03 -1.014e-03 -7.337e-03  2.056e-02  1.318e-02  2.457e-08  2.516e-08  1.023e-09  1.078e-09   -0.5061 -7.257e-02    0.2968    0.1135   -0.4659   -0.1873    3.1416    3.1416  3.914e-17 -1.451e-22    3.1416  3.914e-17  110.0000 1
967 -7.219e-03 -1.344e-02  1.801e-02  3.249e-03 -6.643e-03 -4.825e-02  2.128e-08  2.447e-08  7.610e-10  1.036e-09   -0.3573    0.1020  3.737e-02    0.1795   -0.2317 -4.597e-02    3.1416    3.1416 -2.137e-20  5.024e-23    3.1416 -2.137e-20  110.0000 1
968 -2.104e-02  4.468e-03 -6.460e-03  1.165e-02  3.756e-03  3.634e-03  2.041e-08  1.960e-08  1.085e-09  9.802e-10   -0.3808    0.2883   -0.2402    0.1898 -4.492e-03    0.1000    3.1416    3.1416  3.768e-17  3.050e-22    3.1416  3.768e-17  110.0000 1
969 -7.343e-03 -2.354e-02  2.258e-03  5.367e-03  4.398e-03 -6.264e-03  2.525e-08  2.090e-08  1.152e-09  1.047e-09   -0.2177   -0.8158   -0.2012   -0.4443   -0.1872    0.2636    3.1416    3.1416  8.788e-23    0.    3.1416  8.788e-23  110.0000 1
970 -1.092e-02  1.301e-02  1.685e-02  3.799e-02 -1.242e-02  2.346e-02  1.847e-08  2.638e-08  1.140e-09  9.498e-10   -0.5100    0.1505 -2.984e-02    0.2849    0.6485    0.4716    3.1416    3.1416 -1.098e-21 -6.674e-21    3.1416 -1.098e-21  110.0000 1
971  6.394e-03 -4.284e-02 -1.330e-02  2.465e-03 -2.110e-02 -4.471e-03  1.948e-08  2.519e-08  1.072e-09  1.116e-09   -0.5986    0.1382    0.2672   -0.5089   -0.1229    0.1889    3.1416    3.1416  3.684e-22 -5.133e-20    3.1416  3.684e-22  110.0000 1
972 -1.385e-03  7.117e-03 -2.357e-02 -1.243e-02  1.073e-02  1.032e-02  2.336e-08  2.078e-08  1.023e-09  9.559e-10   -0.2079   -0.3192   -0.1464   -0.2791   -0.1994  5.712e-02    3.1416    3.1416  5.335e-20 -2.021e-23    3.1416  5.335e-20  110.0000 1
973  1.985e-03  2.175e-03 -2.834e-02 -5.475e-03  6.427e-03  2.867e-03  2.123e-08  2.341e-08  9.824e-10  1.131e-09   -0.2004 -2.763e-02   -0.1054  5.689e-03    0.1387   -0.1841    3.1416    3.1416 -2.944e-21 -6.206e-20    3.1416 -2.944e-21  110.0000 1
974 -1.083e-02  1.796e-02  1.442e-03 -4.683e-04 -2.476e-02 -8.155e-03  2.178e-08  2.162e-08  1.043e-09  9.506e-10   -0.4901    0.1305   -0.4513  2.715e-02    0.1630    0.1508    3.1416    3.1416 -4.667e-21  4.577e-24    3.1416 -4.667e-21  110.0000 1
975  2.410e-02  2.476e-02  2.230e-02  1.335e-02  6.336e-03  1.133e-02  1.759e-08  2.007e-08  1.039e-09  1.101e-09 -7.076e-03    0.2494   -0.2858 -2.593e-02    0.2652 -3.845e-02    3.1416    3.1416  8.721e-20  3.664e-20    3.1416  8.721e-20  110.0000 1
976 -3.569e-02  1.931e-02 -7.314e-03  3.194e-03 -3.904e-03  1.657e-02  2.658e-08  2.245e-08  9.025e-10  8.305e-10   -0.1524   -0.7042 -4.492e-02   -0.1450   -0.2464    0.5300    3.1416    3.1416  1.243e-18  2.321e-20    3.1416  1.243e-18  110.0000 1
977  1.614e-04 -2.471e-02 -4.912e-04  7.368e-04  1.904e-03  6.499e-03  1.908e-08  2.369e-08  1.018e-09  1.173e-09    0.5907   -0.5857    0.4107   -0.3986   -0.1076    0.6822    3.1416    3.1416  3.727e-19 -1.197e-22    3.1416  3.727e-19  110.0000 1
978  2.201e-03 -2.656e-02  4.808e-03 -1.647e-02 -1.779e-02  1.392e-02  1.912e-08  2.392e-08  7.287e-10  9.769e-10   -0.3402   -0.2182    0.1196   -0.3199    0.2908    0.3262    3.1416    3.1416 -3.252e-20 -5.644e-22    3.1416 -3.252e-20  110.0000 1
979 -1.546e-02  1.210e-03 -2.250e-02  1.470e-02 -1.284e-02  2.931e-04  2.134e-08  1.841e-08  1.089e-09  8.843e-10   -0.5398 -4.063e-02    0.3232    0.5707    0.3577   -0.2175    3.1416    3.1416 -3.535e-21  6.547e-26    3.1416 -3.535e-21  110.0000 1
980  1.752e-03 -1.783e-02 -4.455e-02 -8.665e-03  4.616e-03  1.396e-02  1.993e-08  2.304e-08  1.035e-09  1.103e-09   -0.3856   -0.4397   -0.4190   -0.4746  4.257e-02   -0.2776    3.1416    3.1416  3.573e-21 -6.045e-23    3.1416  3.573e-21  110.0000 1
981 -2.618e-02 -1.838e-02  2.670e-02 -2.362e-02 -1.871e-02  9.916e-03  2.125e-08  2.112e-08  9.370e-10  9.087e-10    0.3928    0.1314   -0.4883   -0.1192   -0.5684    0.1698    3.1416    3.1416 -1.064e-21 -5.135e-24    3.1416 -1.064e-21  110.0000 1
982 -1.137e-02  6.931e-03  3.212e-02  1.219e-02 -5.975e-03 -1.767e-02  2.388e-08  2.089e-08  8.311e-10  9.669e-10   -0.3327 -6.273e-02  6.495e-02 -6.806e-03   -0.3057    0.1418    3.1416    3.1416  5.041e-23 -2.788e-23    3.1416  5.041e-23  110.0000 1
983 -5.153e-03 -1.029e-02 -3.274e-02  1.975e-02 -3.369e-02 -6.851e-03  2.727e-08  2.449e-08  8.747e-10  8.302e-10   -0.7234   -0.2631  2.822e-02    0.3677    0.3479    0.2658    3.1416    3.1416  3.576e-22 -3.326e-24    3.1416  3.576e-22  110.0000 1
984 -3.821e-04 -1.656e-02  2.407e-03  5.779e-03 -3.075e-02  1.026e-02  2.136e-08  1.937e-08  9.469e-10  1.010e-09    0.3006    0.5216   -0.1962   -0.2259  1.379e-02   -0.3952    3.1416    3.1416 -2.832e-19 -4.102e-22    3.1416 -2.832e-19  110.0000 1
985  2.913e-02  2.344e-02 -7.730e-03  2.708e-02  1.708e-02 -1.482e-03  1.765e-08  1.576e-08  9.426e-10  9.588e-10 -5.520e-02 -3.668e-02 -5.017e-02   -0.5535    0.1659    0.1932    3.1416    3.1416  3.241e-20 -3.330e-20    3.1416  3.241e-20  110.0000 1
986 -4.416e-02 -2.628e-02 -2.462e-02  5.893e-03  7.524e-03 -1.219e-02  1.983e-08  1.924e-08  9.602e-10  1.102e-09    0.5227    0.2706   -0.2095   -0.1568    0.3018 -5.148e-02    3.1416    3.1416 -3.647e-19 -5.443e-22    3.1416 -3.647e-19  110.0000 1
987  1.821e-02  8.752e-03  8.735e-05 -1.494e-02 -1.939e-02 -1.705e-02  2.217e-08  2.165e-08  1.230e-09  1.053e-09   -0.1828    0.5862   -0.1370    0.3360   -0.2622   -0.1338    3.1416    3.1416  2.979e-22    0.    3.1416  2.979e-22  110.0000 1
988  2.808e-04  1.969e-02  1.972e-02 -1.365e-02  2.313e-02 -1.393e-02  2.127e-08  2.447e-08  1.021e-09  9.419e-10   -0.3587   -0.2258   -0.2037    0.2798   -0.1222    0.4762    3.1416    3.1416 -1.436e-21 -2.865e-22    3.1416 -1.436e-21  110.0000 1
989  1.082e-02  3.201e-02  1.424e-02  2.011e-02  3.894e-03  1.605e-02  2.532e-08  2.549e-08  7.261e-10  9.384e-10   -0.3287 -7.985e-02    0.2444 -7.594e-02    0.2215 -7.583e-02    3.1416    3.1416  1.316e-18 -6.707e-24    3.1416  1.316e-18  110.0000 1
990  2.331e-04 -7.841e-03 -2.732e-03  7.940e-03 -8.713e-03  5.598e-03  2.180e-08  1.903e-08  1.165e-09  9.845e-10 -9.571e-02 -8.713e-03   -0.5960    0.1182  4.320e-02    0.2112    3.1416    3.1416  1.180e-19  6.785e-25    3.1416  1.180e-19  110.0000 1
991  1.336e-02 -2.810e-02 -8.136e-03  1.253e-02  8.152e-04  1.625e-02  2.575e-08  2.231e-08  1.074e-09  9.869e-10 -3.178e-02   -0.4184   -0.3920   -0.1136   -0.4019   -0.5477    3.1416    3.1416 -5.074e-21 -1.802e-27    3.1416 -5.074e-21  110.0000 1
992  1.006e-02 -8.187e-03 -1.238e-04  3.357e-03 -4.215e-03  1.754e-02  2.024e-08  2.203e-08  9.082e-10  1.018e-09 -1.681e-02    0.1286    0.1605   -0.3259   -0.4379  1.028e-02    3.1416    3.1416  1.428e-18 -7.573e-20    3.1416  1.428e-18  110.0000 1
993 -1.127e-02  4.093e-03  7.728e-03  5.498e-03 -9.909e-03 -1.162e-02  2.082e-08  1.990e-08  8.822e-10  1.083e-09    0.2491   -0.1744    0.1981    0.4811    0.2284   -0.2638    3.1416    3.1416  5.249e-19 -4.609e-22    3.1416  5.249e-19  110.0000 1
994  2.417e-02  1.343e-03  5.182e-03 -1.431e-02  8.824e-03  1.190e-03  1.857e-08  2.087e-08  1.077e-09  1.090e-09   -0.2959   -0.3566 -7.371e-02   -0.2961    0.4854    0.1024    3.1416    3.1416 -2.139e-16 -1.723e-23    3.1416 -2.139e-16  110.0000 1
995  1.550e-02 -2.475e-03 -6.389e-03  2.796e-03 -6.438e-03  1.070e-03  2.049e-08  2.165e-08  9.858e-10  8.343e-10    0.2844    0.2975   -0.7514   -0.2637 -4.227e-02   -0.1723    3.1416    3.1416  1.059e-22  7.146e-21    3.1416  1.059e-22  110.0000 1
996 -1.108e-02 -1.832e-03  6.868e-03  1.369e-02 -1.377e-02  9.229e-03  2.301e-08  2.002e-08  9.938e-10  1.114e-09  2.598e-03    0.4651   -0.2038   -0.2920   -0.1278   -0.6585    3.1416    3.1416  1.196e-19 -8.314e-22    3.1416  1.196e-19  110.0000 1
997 -1.744e-02  1.533e-02  2.417e-02  3.006e-02 -1.244e-02 -3.185e-02  2.307e-08  2.042e-08  1.018e-09  9.855e-10    0.3861   -0.1499    0.5780    0.6746   -0.6551   -0.3242    3.1416    3.1416  9.936e-18 -9.349e-21    3.1416  9.936e-18  110.0000 1
998  8.695e-03  9.744e-03  4.889e-03  6.627e-03 -3.163e-02 -2.191e-02  2.015e-08  2.113e-08  1.096e-09  1.004e-09   -0.2951    0.1206    0.5752  3.219e-02 -7.856e-02 -1.888e-02    3.1416    3.1416 -4.224e-21 -1.668e-23    3.1416 -4.224e-21  110.0000 1
999 -2.098e-02 -3.183e-02 -1.304e-02  3.457e-03 -8.665e-03  1.091e-02  2.307e-08  2.309e-08  1.035e-09  1.058e-09   -0.8429   -0.5922 -8.559e-02  1.954e-02  8.996e-02   -0.1295    3.1416    3.1416  4.506e-20  4.680e-20    3.1416  4.506e-20  110.0000 1
1000 -3.975e-02  1.427e-02  8.071e-03 -3.429e-03 -9.777e-03 -2.280e-02  2.393e-08  1.841e-08  1.092e-09  1.141e-09    0.1381    0.2236   -0.6293   -0.1231    0.4278    0.5811    3.1416    3.1416  1.115e-19 -8.848e-24    3.1416  1.115e-19  110.0000 1
