Using: /packages/synopsys/hspice/I-2013.12-SP1-1/hspice/linux/hspice mont_Write.sp
 ****** HSPICE -- I-2013.12-SP1-1 32-BIT (Mar 31 2014) RHEL32 ******            
  Copyright (C) 2014 Synopsys, Inc. All Rights Reserved.                        
  Unpublished-rights reserved under US copyright laws.
  This program is protected by law and is subject to the
  terms and conditions of the license agreement from Synopsys.
  Use of this program is your acceptance to be bound by the
  license agreement. HSPICE is the trademark of Synopsys, Inc.
  Input File: mont_Write.sp                                                     
  Command line options: mont_Write.sp
 lic:  
 lic: FLEXlm: v10.9.8 
 lic: USER:   aattaran             HOSTNAME: nano.sfsu.edu 
 lic: HOSTID: 002564fbcbb6         PID:      18785 
 lic: Using FLEXlm license file: 
 lic: /packages/synopsys/license/synopsys.lic 
 lic: Checkout 1 hspice 
 lic: License/Maintenance for hspice will expire on 21-oct-2017/2016.06 
 lic: 4(in_use)/50(total) FLOATING license(s) on SERVER /packages/synopsys/license/synopsys.lic 
 lic:   
 Init: read install configuration file: /packages/synopsys/hspice/I-2013.12-SP1-1/hspice/meta.cfg


*pvaI* current limit stacksize=10485760, set new limit stacksize=62914560
 --------------------------------------------------------
|                                                        |
|          Synopsys Unified Verilog-A (pVA v3.0)         |
|                                                        |
|               Machine Name: nano.sfsu.edu              |
| Copyright (c) 2013 Synopsys Inc., All Rights Reserved. |
|                                                        |
 --------------------------------------------------------

libepva built by pvamgr synmake_pva_build  on Fri Mar 28 20:06:12 PDT 2014
HSP_HOME:   /packages/synopsys/hspice/I-2013.12-SP1-1/hspice
HSP_ARCH:   linux
HSP_GCC :   /packages/synopsys/hspice/I-2013.12-SP1-1/hspice/GNU/rhel/gcc-4.7.2/bin/gcc -m32 
HSP_GCC_VER:   4.7.2
Working-Dir: /Users/students/aattaran/summer2017
Args:        -p hsp -t spi -f mont_Write.pvadir/pvaHDL.lis -o mont_Write.pvadir 

### optimize mode ###
Args: pva -p hsp -t spi -f mont_Write.pvadir/pvaHDL.lis -o mont_Write.pvadir

Begin of pVA compiling on Mon Jul  3 16:58:05 2017	GTM/In-use: 0.1250/0.1167 MB

Parsing 'stt.va'
Parsing include file '/packages/synopsys/hspice/I-2013.12-SP1-1/hspice/include/disciplines.vams'
Parsing include file '/packages/synopsys/hspice/I-2013.12-SP1-1/hspice/include/constants.vams'

End of pVA compiling on Mon Jul  3 16:58:05 2017	GTM/In-use: 0.2500/0.2083 MB


End of build pVA DB on Mon Jul  3 16:58:05 2017	GTM/In-use: 3.1250/3.1025 MB


mont_Write.pvadir/pvaRTL_linux.so is reused

End of pVA elaboration on Mon Jul  3 16:58:05 2017	GTM/In-use: 3.2500/3.1667 MB

 Loading pVA library mont_Write.pvadir/pvaRTL_linux.so...
1****** HSPICE -- I-2013.12-SP1-1 32-BIT (Mar 31 2014) RHEL32 ******            
 ******  
 ****summer 2017 necrl stt latch wite path monte carlo analysis****

 ****** circuit name directory
 circuit number to circuit name directory
   number circuitname                     definition         multiplier
        0 main circuit
        1 xm1.                            nch                1.00 
        2 xm0.                            nch                1.00 
        3 xm4.                            pch                1.00 
        4 xm3.                            pch                1.00 
        5 xm2.                            nch                1.00 
        6 xm5.                            pch                1.00 
        7 xi7.                            mtj                1.00 
        8 xi8.                            mtj                1.00 
        9 xm1.xmn.                        n105               1.00 
       10 xm0.xmn.                        n105               1.00 
       11 xm4.xmp.                        p105               1.00 
       12 xm3.xmp.                        p105               1.00 
       13 xm2.xmn.                        n105               1.00 
       14 xm5.xmp.                        p105               1.00 
       15 xi7.xm1.                        hys(va)            1.00 
       16 xi7.xm2.                        ani(va)            1.00 
       17 xi7.xc1.                        caps1(va)          1.00 
       18 xi7.xrout.                      vcr0(va)           1.00 
       19 xi7.xrwrite.                    vcr(va)            1.00 
       20 xi8.xm1.                        hys(va)            1.00 
       21 xi8.xm2.                        ani(va)            1.00 
       22 xi8.xc1.                        caps1(va)          1.00 
       23 xi8.xrout.                      vcr0(va)           1.00 
       24 xi8.xrwrite.                    vcr(va)            1.00 

 **warning** It is recommended that you set start explicitly:
             .TRAN tstep tstop START=val


1****** HSPICE -- I-2013.12-SP1-1 32-BIT (Mar 31 2014) RHEL32 ******            
 ******  
 ****summer 2017 necrl stt latch wite path monte carlo analysis****

 ****** mos   model parameters tnom= 110.000 temp= 110.000 ******
 Model Name: n105  
 BSIM4 Model (Level 54)
    MOBMOD = 0
    BINUNIT = 1
    PARAMCHK = 0
    CAPMOD = 2
    DIOMOD = 1
    RDSMOD = 0
    TRNQSMOD = 0
    ACNQSMOD = 0
    RBODYMOD = 0
    RGATEMOD = 0
    PERMOD = 1
    GEOMOD = 0
    RGEOMOD = 0
    FNOIMOD = 1
    TNOIMOD = 0
    IGCMOD = 1
    IGBMOD = 1
    STIMOD = 1
    VBFWDMOD = 0
    VERSION =    4.5 
    TOXREF = 2.39e-09 
    TOXE = 2.39e-09 
    TOXP = 2.221e-09 
    TOXM = 2.39e-09 
    DTOX =      0 
    EPSROX =    3.9 
    CDSC =      0 
    CDSCB = -0.03563 
    CDSCD =      0 
    CIT =  0.001 
    NFACTOR =      1 
    XJ =  1e-07 
    VSAT = 2.66e+05 
    A0 =    1.4 
    AGS =   0.06 
    A1 =      0 
    A2 =    0.5 
    AT = 0.0008 
    KETA =      0 
    NSUB =  6e+16 
    NDEP = 1.5e+17 
    NSD =  1e+20 
    NGATE =  1e+23 
    GAMMA1 =      0 
    GAMMA2 =      0 
    VBX =      0 
    VBM =     -3 
    XT = 1.55e-07 
    K1 =    0.4 
    KT1 = -0.1551 
    KT1L = 7.2e-10 
    KT2 = -0.03695 
    K2 = -0.05016 
    K3 =  -3.98 
    K3B =    0.2 
    LPE0 =  2e-09 
    LPEB = 1.5e-08 
    DVTP0 = 1.3e-06 
    DVTP1 =    2.5 
    W0 = 1.658e-08 
    DVT0 =  28.16 
    DVT1 = 0.7992 
    DVT2 = 0.07028 
    DVT0W = -0.02048 
    DVT1W = 6.893e+05 
    DVT2W =  0.075 
    DROUT =  1.817 
    DSUB = 0.5135 
    VTH0 = 0.4422 
    EU =   1.67 
    UA = 4.802e-12 
    UA1 = 0.0811 
    UB = 2.661e-18 
    UB1 = -0.001228 
    UC = 1.378e-10 
    UC1 = -5.6e-11 
    U0 =   30.4 
    UTE =  -1.46 
    VOFF = -0.2037 
    VOFFL = -8.217e-10 
    MINV = -0.3614 
    FPROUT =    150 
    PDITS = 0.4942 
    PDITSD = 0.9771 
    PDITSL = 3.563e+05 
    DELTA =   0.01 
    RDSW =  340.5 
    RDSWMIN =      0 
    RDWMIN =    180 
    RSWMIN =    180 
    RDW =    100 
    RSW =    100 
    PRWG =      0 
    PRWB =      0 
    PRT = 0.005951 
    ETA0 = 0.5807 
    ETAB = -0.2873 
    PCLM =  1e-10 
    PDIBLC1 = 0.07778 
    PDIBLC2 = 0.001118 
    PDIBLCB =  -0.62 
    PSCBE1 =  5e+09 
    PSCBE2 =  5e-06 
    PVAG =      0 
    WR =      1 
    DWG =      0 
    DWB =      0 
    XW =      0 
    XWREF =      0 
    XL =  2e-09 
    XLREF =  2e-09 
    B0 =      0 
    B1 =      1 
    ALPHA0 =  4e-12 
    ALPHA1 =      0 
    AGIDL = 9.069e-10 
    BGIDL = 1.305e+09 
    CGIDL =  7.202 
    PHIN =   0.15 
    EGIDL = 0.1265 
    AIGC = 0.01132 
    BIGC = 0.001217 
    CIGC = 0.0009984 
    AIGSD = 0.008722 
    BIGSD = 0.000717 
    CIGSD = 0.007319 
    AIGBACC = 0.01301 
    BIGBACC = 0.002586 
    CIGBACC = 0.005625 
    AIGBINV = 0.01131 
    BIGBINV = 0.0012 
    CIGBINV = 0.001479 
    NIGC =      3 
    NIGBINV =      3 
    NIGBACC =  5.665 
    NTOX =      1 
    EIGBINV =    1.1 
    PIGCD =      1 
    POXEDGE =    1.3 
    XRCRG1 =     12 
    TNOIA =    1.5 
    TNOIB =    3.5 
    NTNOI =      1 
    XRCRG2 =      1 
    BETA0 =    2.8 
    IJTHDFWD =    0.1 
    IJTHSFWD =    0.1 
    IJTHDREV =    0.1 
    IJTHSREV =    0.1 
    XJBVD =      1 
    XJBVS =      1 
    BVD =     12 
    BVS =     12 
    VFB =     -1 
    GBMIN =  1e-12 
    RBDB =     50 
    RBPB =     50 
    RBSB =     50 
    RBPS =     50 
    RBPD =     50 
    CGSL = 1.444e-10 
    CGDL = 1.444e-10 
    CKAPPAS =  3.844 
    CKAPPAD =  3.844 
    CF =      0 
    CLC =      0 
    CLE =    0.6 
    DWC =      0 
    DLC = 6.9e-09 
    DLCIG =  5e-09 
    DWJ =      0 
    VFBCV =      0 
    ACDE =    0.4 
    MOIN =     15 
    NOFF =  2.077 
    VOFFCV = -0.1548 
    DMCG =  7e-08 
    DMCI = 3.5e-08 
    DMDG =  6e-08 
    DMCGT =      0 
    XGW =  4e-08 
    XGL = -2e-09 
    RSHG =     11 
    NGCON =      1 
    TCJ = 0.0006762 
    TPB = 0.001244 
    TCJSW = 0.0006257 
    TPBSW = 0.0006601 
    TCJSWG =      0 
    TPBSWG = 0.002441 
    SK0 =      0 
    SK1 =      0 
    SK2 =      0 
    SL =  2e-06 
    SW =  2e-06 
    K =      0 
    LVSAT =  -2400 
    LA0 =   -0.2 
    LAGS =  0.136 
    LNDEP = 1.972e+17 
    LK3 = -0.03844 
    LLPE0 =  3e-09 
    LDVT0 =    1.8 
    LU0 =  4.488 
    LUTE = 0.05646 
    LMINV = -0.0075 
    LETAB = 0.004725 
    LAIGC = -1e-05 
    LNOFF =   0.04 
    WVSAT =   2000 
    WDSUB =  0.008 
    WVOFF =  0.006 
    TNOM =  298.1 
    CGSO = 9.626e-11 
    CGDO = 9.626e-11 
    CGBO =  1e-12 
    XPART =      0 
    RSH =     12 
    JSS = 1.897e-07 
    JSWS = 3.693e-14 
    JSWGS = 1.15e-13 
    PBS =  0.831 
    MJS = 0.3945 
    PBSWS = 0.5281 
    MJSWS = 0.3549 
    CJS = 0.001346 
    CJSWS = 8.25e-11 
    NJS =  1.022 
    PBSWGS =  1.503 
    MJSWGS = 0.9212 
    CJSWGS = 3.04e-10 
    XTIS =      3 
    JSD = 1.897e-07 
    JSWD = 3.693e-14 
    JSWGD = 1.15e-13 
    PBD =  0.831 
    MJD = 0.3945 
    PBSWD = 0.9633 
    MJSWD = 0.3549 
    CJD = 0.001346 
    CJSWD = 8.25e-11 
    NJD =  1.022 
    PBSWGD =  1.503 
    MJSWGD = 0.9212 
    CJSWGD = 3.04e-10 
    XTID =      3 
    LMLT =      1 
    WMLT =      1 
    LINT =      0 
    LL =      0 
    LLC =      0 
    LLN =      1 
    LW =      0 
    LWC =      0 
    LWN =      1 
    LWL =      0 
    LWLC =      0 
    LMIN =      0 
    LMAX =      1 
    WINT =      0 
    WL =      0 
    WLC =      0 
    WLN =      1 
    WW =      0 
    WWC =      0 
    WWN =      1 
    WWL =      0 
    WWLC =      0 
    WMIN =      0 
    WMAX =      1 
    NOIA = 3.344e+41 
    NOIB = 2.95e+22 
    NOIC = 8.125e+07 
    EM = 4.1e+07 
    EF =   0.95 
    AF =      1 
    KF = 1.5e-27 
    TRS =      0 
    TRD =      0 
    TEMPMOD  =      1 
    LAMBDA   =      0 
    VTL      =  2e+05 m/s
    LC       =  5e-09 
    XN       =      3 
    LLAMBDA  =      0 
    LVTL     =      0 
    LXN      =      0 
    WLAMBDA  =      0 
    WVTL     =      0 
    WXN      =      0 
    PLAMBDA  =      0 
    PVTL     =      0 
    PXN      =      0 
    RNOIA    =  0.577 
    RNOIB    = 0.5164 
    SAREF(SA0) = 4.48e-07 m
    SBREF(SB0) = 4.48e-07 m
    WLOD     =      0 m
    KU0      =      0 1/m
    KVSAT    =      0 
    KVTH0    = 4.5e-10 m
    TKU0     =      0 
    LLODKU0  =      0 
    WLODKU0  =      0 
    LLODVTH  =      0 
    WLODVTH  =      0 
    LKU0     =      0 
    WKU0     =      0 
    PKU0     =      0 
    LKVTH0   =      0 
    WKVTH0   =      0 
    PKVTH0   =      0 
    STK2     =      0 
    LODK2    =      1 
    STETA0   =      0 
    LODETA0  =      1 
    LXRCRG1  =      0 
    WXRCRG1  =      0 
    PXRCRG1  =      0 
    LXRCRG2  =      0 
    WXRCRG2  =      0 
    PXRCRG2  =      0 
     *** UCB's BSIM4.4.0 new diode model is activated. ***
    *** UCB's Diode Model Parameters ***
    JTSS         =      0 
    JTSSWS       =  7e-11 
    JTSSWGS      =  1e-09 
    JTSD         =      0 
    JTSSWD       =  7e-11 
    JTSSWGD      =  1e-09 
    NJTS         =     60 
    NJTSSW       =     60 
    NJTSSWG      =    2.1 
    XTSS         =   0.02 
    XTSSWS       =   0.02 
    XTSSWGS      =   0.02 
    XTSD         =   0.02 
    XTSSWD       =   0.02 
    XTSSWGD      =   0.02 
    TNJTS        =      0 
    TNJTSSW      =      0 
    TNJTSSWG     =      0 
    VFBSDOFF     =      0 
    LVFBSDOFF    =      0 
    WVFBSDOFF    =      0 
    PVFBSDOFF    =      0 
    LINTNOI      =      0 
    VTSS         =     10 
    VTSD         =     10 
    VTSSWS       =     10 
    VTSSWD       =     10 
    VTSSWGS      =    0.9 
    VTSSWGD      =    0.9 
    TTDIOMOD     =      1 
     *** UCB's BSIM4.5.0 new model is activated. ***
    UD         =      0 
    UD1        =      0 
    UP         =   0.36 
    LP         = 3.094e-08 
    TVOFF      = 0.002063 
    TVFBSDOFF  =      0 
    RBPS0      =     50 
    RBPSL      =      0 
    RBPSW      =      0 
    RBPSNF     =      0 
    RBPD0      =     50 
    RBPDL      =      0 
    RBPDW      =      0 
    RBPDNF     =      0 
    RBPBX0     =    100 
    RBPBXL     =      0 
    RBPBXW     =      0 
    RBPBXNF    =      0 
    RBPBY0     =    100 
    RBPBYL     =      0 
    RBPBYW     =      0 
    RBPBYNF    =      0 
    RBSBX0     =    100 
    RBSBY0     =    100 
    RBDBX0     =    100 
    RBDBY0     =    100 
    RBSDBXL    =      0 
    RBSDBXW    =      0 
    RBSDBXNF   =      0 
    RBSDBYL    =      0 
    RBSDBYW    =      0 
    RBSDBYNF   =      0 
    LUD        =      0 
    LUD1       =      0 
    LUP        =      0 
    LLP        =      0 
    LTVOFF     =      0 
    LTVFBSDOFF =      0 
    WUD        =      0 
    WUD1       =      0 
    WUP        =      0 
    WLP        =      0 
    WTVOFF     =      0 
    WTVFBSDOFF =      0 
    PUD        =      0 
    PUD1       =      0 
    PUP        =      0 
    PLP        =      0 
    PTVOFF     =      0 
    PTVFBSDOFF =      0 
    WEB        = 7.5e+05 
    WEC        = -1e+05 
    KVTH0WE    = 5.624e-07 
    K2WE       =      0 
    KU0WE      =      0 
    SCREF      = 2.5e-06 
    WPEMOD     =      1 
    LKVTH0WE   =      0 
    LK2WE      =      0 
    LKU0WE     =      0 
    WKVTH0WE   =      0 
    WK2WE      =      0 
    WKU0WE     =      0 
    PKVTH0WE   =      0 
    PK2WE      =      0 
    PKU0WE     =      0 
 Model Name: p105  
 BSIM4 Model (Level 54)
    MOBMOD = 0
    BINUNIT = 1
    PARAMCHK = 0
    CAPMOD = 2
    DIOMOD = 1
    RDSMOD = 0
    TRNQSMOD = 0
    ACNQSMOD = 0
    RBODYMOD = 0
    RGATEMOD = 0
    PERMOD = 1
    GEOMOD = 0
    RGEOMOD = 0
    FNOIMOD = 1
    TNOIMOD = 0
    IGCMOD = 1
    IGBMOD = 1
    STIMOD = 1
    VBFWDMOD = 0
    VERSION =    4.5 
    TOXREF = 2.62e-09 
    TOXE = 2.62e-09 
    TOXP = 2.295e-09 
    TOXM = 2.62e-09 
    DTOX =      0 
    EPSROX =    3.9 
    CDSC = 0.1605 
    CDSCB =   0.03 
    CDSCD =      0 
    CIT =      0 
    NFACTOR =      1 
    XJ =  1e-07 
    VSAT = 7.58e+04 
    A0 =  4.509 
    AGS = 0.8198 
    A1 =      0 
    A2 =      1 
    AT =      0 
    KETA = 0.05365 
    NSUB =  6e+16 
    NDEP =  1e+17 
    NSD =  1e+20 
    NGATE = 2.452e+20 
    GAMMA1 =      0 
    GAMMA2 =      0 
    VBX =      0 
    VBM =     -3 
    XT = 1.55e-07 
    K1 = 0.4225 
    KT1 = -0.1673 
    KT1L = -5.206e-09 
    KT2 = -0.0214 
    K2 = -0.0358 
    K3 =  -0.15 
    K3B = 0.0348 
    LPE0 =  5e-08 
    LPEB = 3.777e-09 
    DVTP0 =  8e-07 
    DVTP1 =      0 
    W0 =      0 
    DVT0 =   15.2 
    DVT1 =   1.38 
    DVT2 = 0.0676 
    DVT0W = -0.001592 
    DVT1W =  1e+06 
    DVT2W =   0.25 
    DROUT =   0.56 
    DSUB = 0.3276 
    VTH0 = -0.2565 
    EU =      1 
    UA = 1.203e-15 
    UA1 = -0.0008414 
    UB = 1.67e-19 
    UB1 = 0.002181 
    UC = 2.853e-15 
    UC1 = -0.01207 
    U0 =  60.95 
    UTE = -0.9859 
    VOFF = -0.02239 
    VOFFL = -2.144e-09 
    MINV =  0.736 
    FPROUT =  300.8 
    PDITS =  0.676 
    PDITSD = 0.6156 
    PDITSL = 1.543e+06 
    DELTA =   0.01 
    RDSW =  390.9 
    RDSWMIN =      0 
    RDWMIN =      0 
    RSWMIN =      0 
    RDW =    100 
    RSW =    100 
    PRWG =      0 
    PRWB =      0 
    PRT = 0.0017 
    ETA0 =  0.155 
    ETAB = -0.0843 
    PCLM = 0.1352 
    PDIBLC1 =  1e-07 
    PDIBLC2 =  1e-05 
    PDIBLCB =      0 
    PSCBE1 =  5e+09 
    PSCBE2 =  5e-06 
    PVAG =      2 
    WR =      1 
    DWG =      0 
    DWB =      0 
    XW =      0 
    XWREF =      0 
    XL =  2e-09 
    XLREF =  2e-09 
    B0 =  2e-08 
    B1 =      0 
    ALPHA0 = 8.656e-12 
    ALPHA1 =      0 
    AGIDL = 4.612e-11 
    BGIDL = 6.495e+08 
    CGIDL =  21.15 
    PHIN =   -0.1 
    EGIDL = 0.2457 
    AIGC = 0.00766 
    BIGC = 0.0013 
    CIGC =   0.05 
    AIGSD = 0.00465 
    BIGSD = 0.0003 
    CIGSD = 0.008847 
    AIGBACC = 0.01242 
    BIGBACC = 0.002439 
    CIGBACC = -1.5e-10 
    AIGBINV = 0.01311 
    BIGBINV = 0.002519 
    CIGBINV = 0.0005126 
    NIGC =      3 
    NIGBINV =      1 
    NIGBACC =  8.977 
    NTOX =      1 
    EIGBINV = 1.726e-06 
    PIGCD =      1 
    POXEDGE =  1.404 
    XRCRG1 =     12 
    TNOIA =    1.5 
    TNOIB =    3.5 
    NTNOI =      1 
    XRCRG2 =      1 
    BETA0 =      6 
    IJTHDFWD =    0.1 
    IJTHSFWD =    0.1 
    IJTHDREV =    0.1 
    IJTHSREV =    0.1 
    XJBVD =      1 
    XJBVS =      1 
    BVD =     12 
    BVS =     12 
    VFB =     -1 
    GBMIN =  1e-12 
    RBDB =     50 
    RBPB =     50 
    RBSB =     50 
    RBPS =     50 
    RBPD =     50 
    CGSL = 6.5e-11 
    CGDL = 6.5e-11 
    CKAPPAS =   0.66 
    CKAPPAD =   0.66 
    CF =      0 
    CLC =      0 
    CLE =    0.6 
    DWC =      0 
    DLC = 7.256e-09 
    DLCIG = 5.462e-09 
    DWJ =      0 
    VFBCV =     -1 
    ACDE =  0.518 
    MOIN =     15 
    NOFF =  1.801 
    VOFFCV = 0.08105 
    DMCG =  7e-08 
    DMCI = 3.5e-08 
    DMDG =  6e-08 
    DMCGT =      0 
    XGW =  4e-08 
    XGL = -2e-09 
    RSHG =     11 
    NGCON =      1 
    TCJ = 0.001028 
    TPB = 0.001529 
    TCJSW = 0.001049 
    TPBSW = 0.0004987 
    TCJSWG = 0.0006756 
    TPBSWG = 0.0003417 
    SK0 =      0 
    SK1 =      0 
    SK2 =      0 
    SL =  2e-06 
    SW =  2e-06 
    K =      0 
    LNFACTOR = -0.007 
    LA0 =   0.22 
    LAGS = 0.3509 
    LNDEP = 7.826e+16 
    LUTE = 0.01626 
    LMINV = 0.03843 
    LETAB = 0.002324 
    LAIGC = -2e-05 
    LNOFF = 0.05048 
    LVOFFCV = -0.001943 
    WU0 =  2.292 
    PVSAT =    130 
    PETA0 = -0.0002 
    TNOM =  298.1 
    CGSO = 1.48e-10 
    CGDO = 1.48e-10 
    CGBO =      0 
    XPART =      0 
    RSH =      9 
    JSS = 8.942e-07 
    JSWS = 1.348e-13 
    JSWGS = 1.339e-13 
    PBS = 0.7283 
    MJS = 0.3521 
    PBSWS =   0.94 
    MJSWS = 0.1185 
    CJS = 0.001346 
    CJSWS = 6.5e-11 
    NJS =  1.098 
    PBSWGS = 0.7408 
    MJSWGS = 0.5345 
    CJSWGS = 2.99e-10 
    XTIS =      3 
    JSD = 8.942e-07 
    JSWD = 1.348e-13 
    JSWGD = 1.339e-13 
    PBD = 0.7283 
    MJD = 0.3521 
    PBSWD =   0.94 
    MJSWD = 0.1185 
    CJD = 0.001346 
    CJSWD = 6.5e-11 
    NJD =  1.098 
    PBSWGD = 0.7408 
    MJSWGD = 0.5345 
    CJSWGD = 2.99e-10 
    XTID =      3 
    LMLT =      1 
    WMLT =      1 
    LINT =      0 
    LL =      0 
    LLC =      0 
    LLN =      1 
    LW =      0 
    LWC =      0 
    LWN =      1 
    LWL =      0 
    LWLC =      0 
    LMIN =      0 
    LMAX =      1 
    WINT =      0 
    WL =      0 
    WLC =      0 
    WLN =      1 
    WW =      0 
    WWC =      0 
    WWN =      1 
    WWL =      0 
    WWLC =      0 
    WMIN =      0 
    WMAX =      1 
    NOIA = 8.203e+41 
    NOIB = 1.947e+22 
    NOIC = 3.282e+09 
    EM = 4.1e+07 
    EF =   1.04 
    AF =      1 
    KF =      0 
    TRS =      0 
    TRD =      0 
    TEMPMOD  =      1 
    LAMBDA   =      0 
    VTL      =  2e+05 m/s
    LC       =  5e-09 
    XN       =      3 
    LLAMBDA  =      0 
    LVTL     =      0 
    LXN      =      0 
    WLAMBDA  =      0 
    WVTL     =      0 
    WXN      =      0 
    PLAMBDA  =      0 
    PVTL     =      0 
    PXN      =      0 
    RNOIA    =  0.577 
    RNOIB    = 0.5164 
    SAREF(SA0) = 4.48e-07 m
    SBREF(SB0) = 4.48e-07 m
    WLOD     =      0 m
    KU0      = -2.75e-09 1/m
    KVSAT    =      0 
    KVTH0    = -1.115e-09 m
    TKU0     =      0 
    LLODKU0  =      0 
    WLODKU0  =      0 
    LLODVTH  =      0 
    WLODVTH  =      0 
    LKU0     =      0 
    WKU0     =      0 
    PKU0     =      0 
    LKVTH0   =      0 
    WKVTH0   =      0 
    PKVTH0   =      0 
    STK2     =      0 
    LODK2    =      1 
    STETA0   =      0 
    LODETA0  =      1 
    LXRCRG1  =      0 
    WXRCRG1  =      0 
    PXRCRG1  =      0 
    LXRCRG2  =      0 
    WXRCRG2  =      0 
    PXRCRG2  =      0 
     *** UCB's BSIM4.4.0 new diode model is activated. ***
    *** UCB's Diode Model Parameters ***
    JTSS         =  0.002 
    JTSSWS       =      0 
    JTSSWGS      = 3.8e-11 
    JTSD         =  0.002 
    JTSSWD       =      0 
    JTSSWGD      = 3.8e-11 
    NJTS         =     20 
    NJTSSW       =     20 
    NJTSSWG      =  1.695 
    XTSS         =   0.02 
    XTSSWS       =   0.02 
    XTSSWGS      = 0.08619 
    XTSD         =   0.02 
    XTSSWD       =   0.02 
    XTSSWGD      = 0.08619 
    TNJTS        =      0 
    TNJTSSW      =      0 
    TNJTSSWG     =   0.32 
    VFBSDOFF     =      0 
    LVFBSDOFF    =      0 
    WVFBSDOFF    =      0 
    PVFBSDOFF    =      0 
    LINTNOI      =      0 
    VTSS         =     10 
    VTSD         =     10 
    VTSSWS       =     10 
    VTSSWD       =     10 
    VTSSWGS      = 0.9376 
    VTSSWGD      = 0.9376 
    TTDIOMOD     =      1 
     *** UCB's BSIM4.5.0 new model is activated. ***
    UD         =      0 
    UD1        =      0 
    UP         =  -0.45 
    LP         =  6e-08 
    TVOFF      = 0.01744 
    TVFBSDOFF  =      0 
    RBPS0      =     50 
    RBPSL      =      0 
    RBPSW      =      0 
    RBPSNF     =      0 
    RBPD0      =     50 
    RBPDL      =      0 
    RBPDW      =      0 
    RBPDNF     =      0 
    RBPBX0     =    100 
    RBPBXL     =      0 
    RBPBXW     =      0 
    RBPBXNF    =      0 
    RBPBY0     =    100 
    RBPBYL     =      0 
    RBPBYW     =      0 
    RBPBYNF    =      0 
    RBSBX0     =    100 
    RBSBY0     =    100 
    RBDBX0     =    100 
    RBDBY0     =    100 
    RBSDBXL    =      0 
    RBSDBXW    =      0 
    RBSDBXNF   =      0 
    RBSDBYL    =      0 
    RBSDBYW    =      0 
    RBSDBYNF   =      0 
    LUD        =      0 
    LUD1       =      0 
    LUP        =      0 
    LLP        =      0 
    LTVOFF     =      0 
    LTVFBSDOFF =      0 
    WUD        =      0 
    WUD1       =      0 
    WUP        =      0 
    WLP        =      0 
    WTVOFF     =      0 
    WTVFBSDOFF =      0 
    PUD        =      0 
    PUD1       =      0 
    PUP        =      0 
    PLP        =      0 
    PTVOFF     =      0 
    PTVFBSDOFF =      0 
    WEB        = 6.7e+05 
    WEC        = -7e+05 
    KVTH0WE    = -1e-06 
    K2WE       =      0 
    KU0WE      =      0 
    SCREF      = 2.5e-06 
    WPEMOD     =      1 
    LKVTH0WE   =      0 
    LK2WE      =      0 
    LKU0WE     =      0 
    WKVTH0WE   =      0 
    WK2WE      =      0 
    WKU0WE     =      0 
    PKVTH0WE   =      0 
    PK2WE      =      0 
    PKU0WE     =      0 
 Model Name: n105  
 BSIM4 Model (Level 54)
    MOBMOD = 0
    BINUNIT = 1
    PARAMCHK = 0
    CAPMOD = 2
    DIOMOD = 1
    RDSMOD = 0
    TRNQSMOD = 0
    ACNQSMOD = 0
    RBODYMOD = 0
    RGATEMOD = 0
    PERMOD = 1
    GEOMOD = 0
    RGEOMOD = 0
    FNOIMOD = 1
    TNOIMOD = 0
    IGCMOD = 1
    IGBMOD = 1
    STIMOD = 1
    VBFWDMOD = 0
    VERSION =    4.5 
    TOXREF = 2.39e-09 
    TOXE = 2.39e-09 
    TOXP = 2.221e-09 
    TOXM = 2.39e-09 
    DTOX =      0 
    EPSROX =    3.9 
    CDSC =      0 
    CDSCB = -0.03563 
    CDSCD =      0 
    CIT =  0.001 
    NFACTOR =      1 
    XJ =  1e-07 
    VSAT = 2.66e+05 
    A0 =    1.4 
    AGS =   0.06 
    A1 =      0 
    A2 =    0.5 
    AT = 0.0008 
    KETA =      0 
    NSUB =  6e+16 
    NDEP = 1.5e+17 
    NSD =  1e+20 
    NGATE =  1e+23 
    GAMMA1 =      0 
    GAMMA2 =      0 
    VBX =      0 
    VBM =     -3 
    XT = 1.55e-07 
    K1 =    0.4 
    KT1 = -0.1551 
    KT1L = 7.2e-10 
    KT2 = -0.03695 
    K2 = -0.05016 
    K3 =  -3.98 
    K3B =    0.2 
    LPE0 =  2e-09 
    LPEB = 1.5e-08 
    DVTP0 = 1.3e-06 
    DVTP1 =    2.5 
    W0 = 1.658e-08 
    DVT0 =  28.16 
    DVT1 = 0.7992 
    DVT2 = 0.07028 
    DVT0W = -0.02048 
    DVT1W = 6.893e+05 
    DVT2W =  0.075 
    DROUT =  1.817 
    DSUB = 0.5135 
    VTH0 = 0.4422 
    EU =   1.67 
    UA = 4.802e-12 
    UA1 = 0.0811 
    UB = 2.661e-18 
    UB1 = -0.001228 
    UC = 1.378e-10 
    UC1 = -5.6e-11 
    U0 =   30.4 
    UTE =  -1.46 
    VOFF = -0.2037 
    VOFFL = -8.217e-10 
    MINV = -0.3614 
    FPROUT =    150 
    PDITS = 0.4942 
    PDITSD = 0.9771 
    PDITSL = 3.563e+05 
    DELTA =   0.01 
    RDSW =  340.5 
    RDSWMIN =      0 
    RDWMIN =    180 
    RSWMIN =    180 
    RDW =    100 
    RSW =    100 
    PRWG =      0 
    PRWB =      0 
    PRT = 0.005951 
    ETA0 = 0.5807 
    ETAB = -0.2873 
    PCLM =  1e-10 
    PDIBLC1 = 0.07778 
    PDIBLC2 = 0.001118 
    PDIBLCB =  -0.62 
    PSCBE1 =  5e+09 
    PSCBE2 =  5e-06 
    PVAG =      0 
    WR =      1 
    DWG =      0 
    DWB =      0 
    XW =      0 
    XWREF =      0 
    XL =  2e-09 
    XLREF =  2e-09 
    B0 =      0 
    B1 =      1 
    ALPHA0 =  4e-12 
    ALPHA1 =      0 
    AGIDL = 9.069e-10 
    BGIDL = 1.305e+09 
    CGIDL =  7.202 
    PHIN =   0.15 
    EGIDL = 0.1265 
    AIGC = 0.01132 
    BIGC = 0.001217 
    CIGC = 0.0009984 
    AIGSD = 0.008722 
    BIGSD = 0.000717 
    CIGSD = 0.007319 
    AIGBACC = 0.01301 
    BIGBACC = 0.002586 
    CIGBACC = 0.005625 
    AIGBINV = 0.01131 
    BIGBINV = 0.0012 
    CIGBINV = 0.001479 
    NIGC =      3 
    NIGBINV =      3 
    NIGBACC =  5.665 
    NTOX =      1 
    EIGBINV =    1.1 
    PIGCD =      1 
    POXEDGE =    1.3 
    XRCRG1 =     12 
    TNOIA =    1.5 
    TNOIB =    3.5 
    NTNOI =      1 
    XRCRG2 =      1 
    BETA0 =    2.8 
    IJTHDFWD =    0.1 
    IJTHSFWD =    0.1 
    IJTHDREV =    0.1 
    IJTHSREV =    0.1 
    XJBVD =      1 
    XJBVS =      1 
    BVD =     12 
    BVS =     12 
    VFB =     -1 
    GBMIN =  1e-12 
    RBDB =     50 
    RBPB =     50 
    RBSB =     50 
    RBPS =     50 
    RBPD =     50 
    CGSL = 1.444e-10 
    CGDL = 1.444e-10 
    CKAPPAS =  3.844 
    CKAPPAD =  3.844 
    CF =      0 
    CLC =      0 
    CLE =    0.6 
    DWC =      0 
    DLC = 6.9e-09 
    DLCIG =  5e-09 
    DWJ =      0 
    VFBCV =      0 
    ACDE =    0.4 
    MOIN =     15 
    NOFF =  2.077 
    VOFFCV = -0.1548 
    DMCG =  7e-08 
    DMCI = 3.5e-08 
    DMDG =  6e-08 
    DMCGT =      0 
    XGW =  4e-08 
    XGL = -2e-09 
    RSHG =     11 
    NGCON =      1 
    TCJ = 0.0006762 
    TPB = 0.001244 
    TCJSW = 0.0006257 
    TPBSW = 0.0006601 
    TCJSWG =      0 
    TPBSWG = 0.002441 
    SK0 =      0 
    SK1 =      0 
    SK2 =      0 
    SL =  2e-06 
    SW =  2e-06 
    K =      0 
    LVSAT =  -2400 
    LA0 =   -0.2 
    LAGS =  0.136 
    LNDEP = 1.972e+17 
    LK3 = -0.03844 
    LLPE0 =  3e-09 
    LDVT0 =    1.8 
    LU0 =  4.488 
    LUTE = 0.05646 
    LMINV = -0.0075 
    LETAB = 0.004725 
    LAIGC = -1e-05 
    LNOFF =   0.04 
    WVSAT =   2000 
    WDSUB =  0.008 
    WVOFF =  0.006 
    TNOM =  298.1 
    CGSO = 9.626e-11 
    CGDO = 9.626e-11 
    CGBO =  1e-12 
    XPART =      0 
    RSH =     12 
    JSS = 1.897e-07 
    JSWS = 3.693e-14 
    JSWGS = 1.15e-13 
    PBS =  0.831 
    MJS = 0.3945 
    PBSWS = 0.5281 
    MJSWS = 0.3549 
    CJS = 0.001346 
    CJSWS = 8.25e-11 
    NJS =  1.022 
    PBSWGS =  1.503 
    MJSWGS = 0.9212 
    CJSWGS = 3.04e-10 
    XTIS =      3 
    JSD = 1.897e-07 
    JSWD = 3.693e-14 
    JSWGD = 1.15e-13 
    PBD =  0.831 
    MJD = 0.3945 
    PBSWD = 0.9633 
    MJSWD = 0.3549 
    CJD = 0.001346 
    CJSWD = 8.25e-11 
    NJD =  1.022 
    PBSWGD =  1.503 
    MJSWGD = 0.9212 
    CJSWGD = 3.04e-10 
    XTID =      3 
    LMLT =      1 
    WMLT =      1 
    LINT =      0 
    LL =      0 
    LLC =      0 
    LLN =      1 
    LW =      0 
    LWC =      0 
    LWN =      1 
    LWL =      0 
    LWLC =      0 
    LMIN =      0 
    LMAX =      1 
    WINT =      0 
    WL =      0 
    WLC =      0 
    WLN =      1 
    WW =      0 
    WWC =      0 
    WWN =      1 
    WWL =      0 
    WWLC =      0 
    WMIN =      0 
    WMAX =      1 
    NOIA = 3.344e+41 
    NOIB = 2.95e+22 
    NOIC = 8.125e+07 
    EM = 4.1e+07 
    EF =   0.95 
    AF =      1 
    KF = 1.5e-27 
    TRS =      0 
    TRD =      0 
    TEMPMOD  =      1 
    LAMBDA   =      0 
    VTL      =  2e+05 m/s
    LC       =  5e-09 
    XN       =      3 
    LLAMBDA  =      0 
    LVTL     =      0 
    LXN      =      0 
    WLAMBDA  =      0 
    WVTL     =      0 
    WXN      =      0 
    PLAMBDA  =      0 
    PVTL     =      0 
    PXN      =      0 
    RNOIA    =  0.577 
    RNOIB    = 0.5164 
    SAREF(SA0) = 4.48e-07 m
    SBREF(SB0) = 4.48e-07 m
    WLOD     =      0 m
    KU0      =      0 1/m
    KVSAT    =      0 
    KVTH0    = 4.5e-10 m
    TKU0     =      0 
    LLODKU0  =      0 
    WLODKU0  =      0 
    LLODVTH  =      0 
    WLODVTH  =      0 
    LKU0     =      0 
    WKU0     =      0 
    PKU0     =      0 
    LKVTH0   =      0 
    WKVTH0   =      0 
    PKVTH0   =      0 
    STK2     =      0 
    LODK2    =      1 
    STETA0   =      0 
    LODETA0  =      1 
    LXRCRG1  =      0 
    WXRCRG1  =      0 
    PXRCRG1  =      0 
    LXRCRG2  =      0 
    WXRCRG2  =      0 
    PXRCRG2  =      0 
     *** UCB's BSIM4.4.0 new diode model is activated. ***
    *** UCB's Diode Model Parameters ***
    JTSS         =      0 
    JTSSWS       =  7e-11 
    JTSSWGS      =  1e-09 
    JTSD         =      0 
    JTSSWD       =  7e-11 
    JTSSWGD      =  1e-09 
    NJTS         =     60 
    NJTSSW       =     60 
    NJTSSWG      =    2.1 
    XTSS         =   0.02 
    XTSSWS       =   0.02 
    XTSSWGS      =   0.02 
    XTSD         =   0.02 
    XTSSWD       =   0.02 
    XTSSWGD      =   0.02 
    TNJTS        =      0 
    TNJTSSW      =      0 
    TNJTSSWG     =      0 
    VFBSDOFF     =      0 
    LVFBSDOFF    =      0 
    WVFBSDOFF    =      0 
    PVFBSDOFF    =      0 
    LINTNOI      =      0 
    VTSS         =     10 
    VTSD         =     10 
    VTSSWS       =     10 
    VTSSWD       =     10 
    VTSSWGS      =    0.9 
    VTSSWGD      =    0.9 
    TTDIOMOD     =      1 
     *** UCB's BSIM4.5.0 new model is activated. ***
    UD         =      0 
    UD1        =      0 
    UP         =   0.36 
    LP         = 3.094e-08 
    TVOFF      = 0.002063 
    TVFBSDOFF  =      0 
    RBPS0      =     50 
    RBPSL      =      0 
    RBPSW      =      0 
    RBPSNF     =      0 
    RBPD0      =     50 
    RBPDL      =      0 
    RBPDW      =      0 
    RBPDNF     =      0 
    RBPBX0     =    100 
    RBPBXL     =      0 
    RBPBXW     =      0 
    RBPBXNF    =      0 
    RBPBY0     =    100 
    RBPBYL     =      0 
    RBPBYW     =      0 
    RBPBYNF    =      0 
    RBSBX0     =    100 
    RBSBY0     =    100 
    RBDBX0     =    100 
    RBDBY0     =    100 
    RBSDBXL    =      0 
    RBSDBXW    =      0 
    RBSDBXNF   =      0 
    RBSDBYL    =      0 
    RBSDBYW    =      0 
    RBSDBYNF   =      0 
    LUD        =      0 
    LUD1       =      0 
    LUP        =      0 
    LLP        =      0 
    LTVOFF     =      0 
    LTVFBSDOFF =      0 
    WUD        =      0 
    WUD1       =      0 
    WUP        =      0 
    WLP        =      0 
    WTVOFF     =      0 
    WTVFBSDOFF =      0 
    PUD        =      0 
    PUD1       =      0 
    PUP        =      0 
    PLP        =      0 
    PTVOFF     =      0 
    PTVFBSDOFF =      0 
    WEB        = 7.5e+05 
    WEC        = -1e+05 
    KVTH0WE    = 5.486e-07 
    K2WE       =      0 
    KU0WE      =      0 
    SCREF      = 2.5e-06 
    WPEMOD     =      1 
    LKVTH0WE   =      0 
    LK2WE      =      0 
    LKU0WE     =      0 
    WKVTH0WE   =      0 
    WK2WE      =      0 
    WKU0WE     =      0 
    PKVTH0WE   =      0 
    PK2WE      =      0 
    PKU0WE     =      0 
 Model Name: p105  
 BSIM4 Model (Level 54)
    MOBMOD = 0
    BINUNIT = 1
    PARAMCHK = 0
    CAPMOD = 2
    DIOMOD = 1
    RDSMOD = 0
    TRNQSMOD = 0
    ACNQSMOD = 0
    RBODYMOD = 0
    RGATEMOD = 0
    PERMOD = 1
    GEOMOD = 0
    RGEOMOD = 0
    FNOIMOD = 1
    TNOIMOD = 0
    IGCMOD = 1
    IGBMOD = 1
    STIMOD = 1
    VBFWDMOD = 0
    VERSION =    4.5 
    TOXREF = 2.62e-09 
    TOXE = 2.62e-09 
    TOXP = 2.295e-09 
    TOXM = 2.62e-09 
    DTOX =      0 
    EPSROX =    3.9 
    CDSC = 0.1605 
    CDSCB =   0.03 
    CDSCD =      0 
    CIT =      0 
    NFACTOR =      1 
    XJ =  1e-07 
    VSAT = 7.58e+04 
    A0 =  4.509 
    AGS = 0.8198 
    A1 =      0 
    A2 =      1 
    AT =      0 
    KETA = 0.05365 
    NSUB =  6e+16 
    NDEP =  1e+17 
    NSD =  1e+20 
    NGATE = 2.452e+20 
    GAMMA1 =      0 
    GAMMA2 =      0 
    VBX =      0 
    VBM =     -3 
    XT = 1.55e-07 
    K1 = 0.4225 
    KT1 = -0.1673 
    KT1L = -5.206e-09 
    KT2 = -0.0214 
    K2 = -0.0358 
    K3 =  -0.15 
    K3B = 0.0348 
    LPE0 =  5e-08 
    LPEB = 3.777e-09 
    DVTP0 =  8e-07 
    DVTP1 =      0 
    W0 =      0 
    DVT0 =   15.2 
    DVT1 =   1.38 
    DVT2 = 0.0676 
    DVT0W = -0.001592 
    DVT1W =  1e+06 
    DVT2W =   0.25 
    DROUT =   0.56 
    DSUB = 0.3276 
    VTH0 = -0.2565 
    EU =      1 
    UA = 1.203e-15 
    UA1 = -0.0008414 
    UB = 1.67e-19 
    UB1 = 0.002181 
    UC = 2.853e-15 
    UC1 = -0.01207 
    U0 =  60.95 
    UTE = -0.9859 
    VOFF = -0.02239 
    VOFFL = -2.144e-09 
    MINV =  0.736 
    FPROUT =  300.8 
    PDITS =  0.676 
    PDITSD = 0.6156 
    PDITSL = 1.543e+06 
    DELTA =   0.01 
    RDSW =  390.9 
    RDSWMIN =      0 
    RDWMIN =      0 
    RSWMIN =      0 
    RDW =    100 
    RSW =    100 
    PRWG =      0 
    PRWB =      0 
    PRT = 0.0017 
    ETA0 =  0.155 
    ETAB = -0.0843 
    PCLM = 0.1352 
    PDIBLC1 =  1e-07 
    PDIBLC2 =  1e-05 
    PDIBLCB =      0 
    PSCBE1 =  5e+09 
    PSCBE2 =  5e-06 
    PVAG =      2 
    WR =      1 
    DWG =      0 
    DWB =      0 
    XW =      0 
    XWREF =      0 
    XL =  2e-09 
    XLREF =  2e-09 
    B0 =  2e-08 
    B1 =      0 
    ALPHA0 = 8.656e-12 
    ALPHA1 =      0 
    AGIDL = 4.612e-11 
    BGIDL = 6.495e+08 
    CGIDL =  21.15 
    PHIN =   -0.1 
    EGIDL = 0.2457 
    AIGC = 0.00766 
    BIGC = 0.0013 
    CIGC =   0.05 
    AIGSD = 0.00465 
    BIGSD = 0.0003 
    CIGSD = 0.008847 
    AIGBACC = 0.01242 
    BIGBACC = 0.002439 
    CIGBACC = -1.5e-10 
    AIGBINV = 0.01311 
    BIGBINV = 0.002519 
    CIGBINV = 0.0005126 
    NIGC =      3 
    NIGBINV =      1 
    NIGBACC =  8.977 
    NTOX =      1 
    EIGBINV = 1.726e-06 
    PIGCD =      1 
    POXEDGE =  1.404 
    XRCRG1 =     12 
    TNOIA =    1.5 
    TNOIB =    3.5 
    NTNOI =      1 
    XRCRG2 =      1 
    BETA0 =      6 
    IJTHDFWD =    0.1 
    IJTHSFWD =    0.1 
    IJTHDREV =    0.1 
    IJTHSREV =    0.1 
    XJBVD =      1 
    XJBVS =      1 
    BVD =     12 
    BVS =     12 
    VFB =     -1 
    GBMIN =  1e-12 
    RBDB =     50 
    RBPB =     50 
    RBSB =     50 
    RBPS =     50 
    RBPD =     50 
    CGSL = 6.5e-11 
    CGDL = 6.5e-11 
    CKAPPAS =   0.66 
    CKAPPAD =   0.66 
    CF =      0 
    CLC =      0 
    CLE =    0.6 
    DWC =      0 
    DLC = 7.256e-09 
    DLCIG = 5.462e-09 
    DWJ =      0 
    VFBCV =     -1 
    ACDE =  0.518 
    MOIN =     15 
    NOFF =  1.801 
    VOFFCV = 0.08105 
    DMCG =  7e-08 
    DMCI = 3.5e-08 
    DMDG =  6e-08 
    DMCGT =      0 
    XGW =  4e-08 
    XGL = -2e-09 
    RSHG =     11 
    NGCON =      1 
    TCJ = 0.001028 
    TPB = 0.001529 
    TCJSW = 0.001049 
    TPBSW = 0.0004987 
    TCJSWG = 0.0006756 
    TPBSWG = 0.0003417 
    SK0 =      0 
    SK1 =      0 
    SK2 =      0 
    SL =  2e-06 
    SW =  2e-06 
    K =      0 
    LNFACTOR = -0.007 
    LA0 =   0.22 
    LAGS = 0.3509 
    LNDEP = 7.826e+16 
    LUTE = 0.01626 
    LMINV = 0.03843 
    LETAB = 0.002324 
    LAIGC = -2e-05 
    LNOFF = 0.05048 
    LVOFFCV = -0.001943 
    WU0 =  2.292 
    PVSAT =    130 
    PETA0 = -0.0002 
    TNOM =  298.1 
    CGSO = 1.48e-10 
    CGDO = 1.48e-10 
    CGBO =      0 
    XPART =      0 
    RSH =      9 
    JSS = 8.942e-07 
    JSWS = 1.348e-13 
    JSWGS = 1.339e-13 
    PBS = 0.7283 
    MJS = 0.3521 
    PBSWS =   0.94 
    MJSWS = 0.1185 
    CJS = 0.001346 
    CJSWS = 6.5e-11 
    NJS =  1.098 
    PBSWGS = 0.7408 
    MJSWGS = 0.5345 
    CJSWGS = 2.99e-10 
    XTIS =      3 
    JSD = 8.942e-07 
    JSWD = 1.348e-13 
    JSWGD = 1.339e-13 
    PBD = 0.7283 
    MJD = 0.3521 
    PBSWD =   0.94 
    MJSWD = 0.1185 
    CJD = 0.001346 
    CJSWD = 6.5e-11 
    NJD =  1.098 
    PBSWGD = 0.7408 
    MJSWGD = 0.5345 
    CJSWGD = 2.99e-10 
    XTID =      3 
    LMLT =      1 
    WMLT =      1 
    LINT =      0 
    LL =      0 
    LLC =      0 
    LLN =      1 
    LW =      0 
    LWC =      0 
    LWN =      1 
    LWL =      0 
    LWLC =      0 
    LMIN =      0 
    LMAX =      1 
    WINT =      0 
    WL =      0 
    WLC =      0 
    WLN =      1 
    WW =      0 
    WWC =      0 
    WWN =      1 
    WWL =      0 
    WWLC =      0 
    WMIN =      0 
    WMAX =      1 
    NOIA = 8.203e+41 
    NOIB = 1.947e+22 
    NOIC = 3.282e+09 
    EM = 4.1e+07 
    EF =   1.04 
    AF =      1 
    KF =      0 
    TRS =      0 
    TRD =      0 
    TEMPMOD  =      1 
    LAMBDA   =      0 
    VTL      =  2e+05 m/s
    LC       =  5e-09 
    XN       =      3 
    LLAMBDA  =      0 
    LVTL     =      0 
    LXN      =      0 
    WLAMBDA  =      0 
    WVTL     =      0 
    WXN      =      0 
    PLAMBDA  =      0 
    PVTL     =      0 
    PXN      =      0 
    RNOIA    =  0.577 
    RNOIB    = 0.5164 
    SAREF(SA0) = 4.48e-07 m
    SBREF(SB0) = 4.48e-07 m
    WLOD     =      0 m
    KU0      = -2.75e-09 1/m
    KVSAT    =      0 
    KVTH0    = -1.115e-09 m
    TKU0     =      0 
    LLODKU0  =      0 
    WLODKU0  =      0 
    LLODVTH  =      0 
    WLODVTH  =      0 
    LKU0     =      0 
    WKU0     =      0 
    PKU0     =      0 
    LKVTH0   =      0 
    WKVTH0   =      0 
    PKVTH0   =      0 
    STK2     =      0 
    LODK2    =      1 
    STETA0   =      0 
    LODETA0  =      1 
    LXRCRG1  =      0 
    WXRCRG1  =      0 
    PXRCRG1  =      0 
    LXRCRG2  =      0 
    WXRCRG2  =      0 
    PXRCRG2  =      0 
     *** UCB's BSIM4.4.0 new diode model is activated. ***
    *** UCB's Diode Model Parameters ***
    JTSS         =  0.002 
    JTSSWS       =      0 
    JTSSWGS      = 3.8e-11 
    JTSD         =  0.002 
    JTSSWD       =      0 
    JTSSWGD      = 3.8e-11 
    NJTS         =     20 
    NJTSSW       =     20 
    NJTSSWG      =  1.695 
    XTSS         =   0.02 
    XTSSWS       =   0.02 
    XTSSWGS      = 0.08619 
    XTSD         =   0.02 
    XTSSWD       =   0.02 
    XTSSWGD      = 0.08619 
    TNJTS        =      0 
    TNJTSSW      =      0 
    TNJTSSWG     =   0.32 
    VFBSDOFF     =      0 
    LVFBSDOFF    =      0 
    WVFBSDOFF    =      0 
    PVFBSDOFF    =      0 
    LINTNOI      =      0 
    VTSS         =     10 
    VTSD         =     10 
    VTSSWS       =     10 
    VTSSWD       =     10 
    VTSSWGS      = 0.9376 
    VTSSWGD      = 0.9376 
    TTDIOMOD     =      1 
     *** UCB's BSIM4.5.0 new model is activated. ***
    UD         =      0 
    UD1        =      0 
    UP         =  -0.45 
    LP         =  6e-08 
    TVOFF      = 0.01744 
    TVFBSDOFF  =      0 
    RBPS0      =     50 
    RBPSL      =      0 
    RBPSW      =      0 
    RBPSNF     =      0 
    RBPD0      =     50 
    RBPDL      =      0 
    RBPDW      =      0 
    RBPDNF     =      0 
    RBPBX0     =    100 
    RBPBXL     =      0 
    RBPBXW     =      0 
    RBPBXNF    =      0 
    RBPBY0     =    100 
    RBPBYL     =      0 
    RBPBYW     =      0 
    RBPBYNF    =      0 
    RBSBX0     =    100 
    RBSBY0     =    100 
    RBDBX0     =    100 
    RBDBY0     =    100 
    RBSDBXL    =      0 
    RBSDBXW    =      0 
    RBSDBXNF   =      0 
    RBSDBYL    =      0 
    RBSDBYW    =      0 
    RBSDBYNF   =      0 
    LUD        =      0 
    LUD1       =      0 
    LUP        =      0 
    LLP        =      0 
    LTVOFF     =      0 
    LTVFBSDOFF =      0 
    WUD        =      0 
    WUD1       =      0 
    WUP        =      0 
    WLP        =      0 
    WTVOFF     =      0 
    WTVFBSDOFF =      0 
    PUD        =      0 
    PUD1       =      0 
    PUP        =      0 
    PLP        =      0 
    PTVOFF     =      0 
    PTVFBSDOFF =      0 
    WEB        = 6.7e+05 
    WEC        = -7e+05 
    KVTH0WE    = -1e-06 
    K2WE       =      0 
    KU0WE      =      0 
    SCREF      = 2.5e-06 
    WPEMOD     =      1 
    LKVTH0WE   =      0 
    LK2WE      =      0 
    LKU0WE     =      0 
    WKVTH0WE   =      0 
    WK2WE      =      0 
    WKU0WE     =      0 
    PKVTH0WE   =      0 
    PK2WE      =      0 
    PKU0WE     =      0 
*pvaI* Creating VA module (vcr) for instance XI8.XRWRITE with gmd reduction
*pvaI* Creating VA module (vcr0) for instance XI8.XROUT with gmd reduction
*pvaI* Creating VA module (caps1) for instance XI8.XC1 with gmd reduction
*pvaI* Creating VA module (ani) for instance XI8.XM2 with gmd reduction
*pvaI* Creating VA module (hys) for instance XI8.XM1 with gmd reduction
  **warning** (mont_Write.sp:72) Duplicate .ic declaration for node ntr. Taking the last .ic value  0.00
  
      
 *****************************************************************
 ******  option summary
 ******
 runlvl  = 3         bypass  = 2         
*pvaI* Creating VA module (vcr) for instance XI7.XRWRITE with gmd reduction
*pvaI* Creating VA module (vcr0) for instance XI7.XROUT with gmd reduction
*pvaI* Creating VA module (caps1) for instance XI7.XC1 with gmd reduction
*pvaI* Creating VA module (ani) for instance XI7.XM2 with gmd reduction
*pvaI* Creating VA module (hys) for instance XI7.XM1 with gmd reduction
*pvaI* minimum timestep = 1e-19
 ******  
 ****summer 2017 necrl stt latch wite path monte carlo analysis****

 ****** transient analysis tnom= 110.000 temp= 110.000 ******

   *** monte carlo  index =            1 ***

       MONTE CARLO PARAMETER DEFINITIONS

 dvtn_intra                      
     1:vdvtn         =  2.2294E-02  5:vdvtn         =  2.5432E-03
     2:vdvtn         =  4.3153E-03
 dvtp_intra                      
     3:vdvtp         =  8.1968E-03  6:vdvtp         =  1.8679E-03
     4:vdvtp         =  1.4050E-02
 dr_intra                        
     7:r1            =  2.3009E-08  8:r1            =  2.1693E-08
 dt_intra                        
     7:tox1          =  8.9407E-10  8:tox1          =  1.0156E-09
 9:mc_cnr_round                  
     9:mc_cnr_rnd    = -0.3526      10:mc_cnr_rnd   =  0.2628    
 11:mc_cnr_round                 
     11:mc_cnr_rnd   = -0.4049      12:mc_cnr_rnd   =  0.3717    
 13:mc_cnr_round                 
     13:mc_cnr_rnd   =  0.3675    
 14:mc_cnr_round                 
     14:mc_cnr_rnd   = -0.3516    

 ntrh=   3.1416 
 ntdh1=   3.1416 
 ntrl1= 3.869e-22
 ntdl=-1.837e-28
 ntdh2=   3.1416 
 ntrl2= 3.869e-22

          ***** job concluded

   *** monte carlo  index =            2 ***

       MONTE CARLO PARAMETER DEFINITIONS

 dvtn_intra                      
     1:vdvtn         = -6.4418E-03  5:vdvtn         = -2.9959E-02
     2:vdvtn         = -1.3055E-02
 dvtp_intra                      
     3:vdvtp         =  1.8586E-02  6:vdvtp         = -1.2907E-02
     4:vdvtp         =  3.3205E-03
 dr_intra                        
     7:r1            =  1.9950E-08  8:r1            =  2.2649E-08
 dt_intra                        
     7:tox1          =  1.0640E-09  8:tox1          =  1.0471E-09
 9:mc_cnr_round                  
     9:mc_cnr_rnd    = -0.1130      10:mc_cnr_rnd   = -0.7910    
 11:mc_cnr_round                 
     11:mc_cnr_rnd   = -9.1798E-03  12:mc_cnr_rnd   =  0.4226    
 13:mc_cnr_round                 
     13:mc_cnr_rnd   =  0.1816    
 14:mc_cnr_round                 
     14:mc_cnr_rnd   = -0.3755    

 ntrh=   3.1416 
 ntdh1=   3.1416 
 ntrl1=  -1.5263a
 ntdl=-4.084e-19
 ntdh2=   3.1416 
 ntrl2=  -1.5263a

          ***** job concluded

   *** monte carlo  index =            3 ***

       MONTE CARLO PARAMETER DEFINITIONS

 dvtn_intra                      
     1:vdvtn         = -4.6682E-03  5:vdvtn         = -1.6651E-02
     2:vdvtn         =  1.8726E-02
 dvtp_intra                      
     3:vdvtp         = -4.4643E-03  6:vdvtp         = -1.5402E-02
     4:vdvtp         = -1.1660E-02
 dr_intra                        
     7:r1            =  2.2104E-08  8:r1            =  2.1459E-08
 dt_intra                        
     7:tox1          =  1.0492E-09  8:tox1          =  1.0275E-09
 9:mc_cnr_round                  
     9:mc_cnr_rnd    =  0.2688      10:mc_cnr_rnd   = -8.2062E-02
 11:mc_cnr_round                 
     11:mc_cnr_rnd   = -0.7323      12:mc_cnr_rnd   = -7.6709E-02
 13:mc_cnr_round                 
     13:mc_cnr_rnd   =  0.6821    
 14:mc_cnr_round                 
     14:mc_cnr_rnd   = -5.6257E-02

 ntrh=   3.1416 
 ntdh1=   3.1416 
 ntrl1= 1.029e-20
 ntdl= 3.503e-19
 ntdh2=   3.1416 
 ntrl2= 1.029e-20

          ***** job concluded

   *** monte carlo  index =            4 ***

       MONTE CARLO PARAMETER DEFINITIONS

 dvtn_intra                      
     1:vdvtn         =  2.7643E-02  5:vdvtn         = -1.4149E-02
     2:vdvtn         = -2.0693E-03
 dvtp_intra                      
     3:vdvtp         =  2.1990E-02  6:vdvtp         =  2.7435E-04
     4:vdvtp         = -2.6066E-03
 dr_intra                        
     7:r1            =  2.1506E-08  8:r1            =  2.1098E-08
 dt_intra                        
     7:tox1          =  1.1847E-09  8:tox1          =  9.2150E-10
 9:mc_cnr_round                  
     9:mc_cnr_rnd    = -0.2869      10:mc_cnr_rnd   =  0.1682    
 11:mc_cnr_round                 
     11:mc_cnr_rnd   = -6.7648E-02  12:mc_cnr_rnd   = -0.2085    
 13:mc_cnr_round                 
     13:mc_cnr_rnd   = -0.2451    
 14:mc_cnr_round                 
     14:mc_cnr_rnd   =  0.1329    

 ntrh=   3.1416 
 ntdh1=   3.1416 
 ntrl1=-1.051e-21
 ntdl= 2.157e-24
 ntdh2=   3.1416 
 ntrl2=-1.051e-21

          ***** job concluded

   *** monte carlo  index =            5 ***

       MONTE CARLO PARAMETER DEFINITIONS

 dvtn_intra                      
     1:vdvtn         =  3.5473E-02  5:vdvtn         = -6.6004E-03
     2:vdvtn         =  8.7098E-04
 dvtp_intra                      
     3:vdvtp         =  9.5840E-03  6:vdvtp         = -2.5616E-03
     4:vdvtp         =  1.7662E-03
 dr_intra                        
     7:r1            =  2.5425E-08  8:r1            =  1.6864E-08
 dt_intra                        
     7:tox1          =  8.7846E-10  8:tox1          =  8.7167E-10
 9:mc_cnr_round                  
     9:mc_cnr_rnd    =  0.3681      10:mc_cnr_rnd   = -0.6111    
 11:mc_cnr_round                 
     11:mc_cnr_rnd   = -0.3695      12:mc_cnr_rnd   =  0.5093    
 13:mc_cnr_round                 
     13:mc_cnr_rnd   =  0.2121    
 14:mc_cnr_round                 
     14:mc_cnr_rnd   = -0.1991    

 ntrh=   3.1416 
 ntdh1=   3.1416 
 ntrl1=-6.066e-20
 ntdl=-2.919e-22
 ntdh2=   3.1416 
 ntrl2=-6.066e-20

          ***** job concluded

   *** monte carlo  index =            6 ***

       MONTE CARLO PARAMETER DEFINITIONS

 dvtn_intra                      
     1:vdvtn         = -6.5933E-03  5:vdvtn         = -9.2923E-03
     2:vdvtn         = -2.8161E-02
 dvtp_intra                      
     3:vdvtp         =  8.2275E-03  6:vdvtp         =  2.5997E-02
     4:vdvtp         =  4.1194E-03
 dr_intra                        
     7:r1            =  2.0214E-08  8:r1            =  2.1803E-08
 dt_intra                        
     7:tox1          =  1.1084E-09  8:tox1          =  1.1199E-09
 9:mc_cnr_round                  
     9:mc_cnr_rnd    = -0.1321      10:mc_cnr_rnd   =  0.2474    
 11:mc_cnr_round                 
     11:mc_cnr_rnd   =  0.3204      12:mc_cnr_rnd   =  0.3523    
 13:mc_cnr_round                 
     13:mc_cnr_rnd   =  6.4472E-02
 14:mc_cnr_round                 
     14:mc_cnr_rnd   = -6.1584E-02

 ntrh=   3.1416 
 ntdh1=   3.1416 
 ntrl1=   3.9555a
 ntdl=  -1.0077a
 ntdh2=   3.1416 
 ntrl2=   3.9555a

          ***** job concluded

   *** monte carlo  index =            7 ***

       MONTE CARLO PARAMETER DEFINITIONS

 dvtn_intra                      
     1:vdvtn         = -4.1747E-03  5:vdvtn         =  1.5216E-02
     2:vdvtn         =  2.2271E-02
 dvtp_intra                      
     3:vdvtp         = -1.6814E-03  6:vdvtp         = -2.6245E-02
     4:vdvtp         =  4.0717E-03
 dr_intra                        
     7:r1            =  1.9312E-08  8:r1            =  2.2186E-08
 dt_intra                        
     7:tox1          =  9.8128E-10  8:tox1          =  9.8463E-10
 9:mc_cnr_round                  
     9:mc_cnr_rnd    =  0.1698      10:mc_cnr_rnd   =  0.6836    
 11:mc_cnr_round                 
     11:mc_cnr_rnd   =  0.1004      12:mc_cnr_rnd   =  7.3289E-02
 13:mc_cnr_round                 
     13:mc_cnr_rnd   =  0.1979    
 14:mc_cnr_round                 
     14:mc_cnr_rnd   = -4.9630E-03

 ntrh=   3.1416 
 ntdh1=   3.1416 
 ntrl1= 8.848e-21
 ntdl=-3.841e-21
 ntdh2=   3.1416 
 ntrl2= 8.848e-21

          ***** job concluded

   *** monte carlo  index =            8 ***

       MONTE CARLO PARAMETER DEFINITIONS

 dvtn_intra                      
     1:vdvtn         =  1.1653E-02  5:vdvtn         =  6.5829E-03
     2:vdvtn         =  5.4546E-03
 dvtp_intra                      
     3:vdvtp         =  7.9902E-03  6:vdvtp         = -1.0424E-02
     4:vdvtp         = -8.8252E-04
 dr_intra                        
     7:r1            =  2.1352E-08  8:r1            =  2.0171E-08
 dt_intra                        
     7:tox1          =  1.1297E-09  8:tox1          =  1.2666E-09
 9:mc_cnr_round                  
     9:mc_cnr_rnd    =  1.8030E-02  10:mc_cnr_rnd   = -9.3485E-02
 11:mc_cnr_round                 
     11:mc_cnr_rnd   =  5.7972E-02  12:mc_cnr_rnd   =  0.1469    
 13:mc_cnr_round                 
     13:mc_cnr_rnd   =  0.1146    
 14:mc_cnr_round                 
     14:mc_cnr_rnd   =  3.3406E-03

 ntrh=   3.1416 
 ntdh1=   3.1416 
 ntrl1=-4.535e-19
 ntdl=-1.840e-20
 ntdh2=   3.1416 
 ntrl2=-4.535e-19

          ***** job concluded

   *** monte carlo  index =            9 ***

       MONTE CARLO PARAMETER DEFINITIONS

 dvtn_intra                      
     1:vdvtn         =  3.2264E-02  5:vdvtn         =  7.2293E-04
     2:vdvtn         =  1.8081E-02
 dvtp_intra                      
     3:vdvtp         = -1.9098E-03  6:vdvtp         = -6.2757E-03
     4:vdvtp         =  1.6786E-02
 dr_intra                        
     7:r1            =  2.0382E-08  8:r1            =  2.6596E-08
 dt_intra                        
     7:tox1          =  1.0979E-09  8:tox1          =  8.9217E-10
 9:mc_cnr_round                  
     9:mc_cnr_rnd    = -0.2584      10:mc_cnr_rnd   =  7.2734E-02
 11:mc_cnr_round                 
     11:mc_cnr_rnd   =  0.1671      12:mc_cnr_rnd   = -5.6451E-03
 13:mc_cnr_round                 
     13:mc_cnr_rnd   = -0.2195    
 14:mc_cnr_round                 
     14:mc_cnr_rnd   =  0.2950    

 ntrh=   3.1416 
 ntdh1=   3.1416 
 ntrl1=-2.795e-20
 ntdl=-1.707e-22
 ntdh2=   3.1416 
 ntrl2=-2.795e-20

          ***** job concluded

   *** monte carlo  index =           10 ***

       MONTE CARLO PARAMETER DEFINITIONS

 dvtn_intra                      
     1:vdvtn         =  7.6906E-03  5:vdvtn         = -3.3553E-03
     2:vdvtn         =  2.4369E-02
 dvtp_intra                      
     3:vdvtp         =  5.1979E-03  6:vdvtp         = -1.1531E-02
     4:vdvtp         =  1.5544E-02
 dr_intra                        
     7:r1            =  2.2796E-08  8:r1            =  1.8643E-08
 dt_intra                        
     7:tox1          =  1.0359E-09  8:tox1          =  8.5447E-10
 9:mc_cnr_round                  
     9:mc_cnr_rnd    =  3.7195E-02  10:mc_cnr_rnd   = -1.2361E-02
 11:mc_cnr_round                 
     11:mc_cnr_rnd   =  9.2005E-02  12:mc_cnr_rnd   = -0.2633    
 13:mc_cnr_round                 
     13:mc_cnr_rnd   =  0.6758    
 14:mc_cnr_round                 
     14:mc_cnr_rnd   =  0.2785    

 ntrh=   3.1416 
 ntdh1=   3.1416 
 ntrl1=-5.667e-20
 ntdl=-3.298e-21
 ntdh2=   3.1416 
 ntrl2=-5.667e-20

          ***** job concluded

   *** monte carlo  index =           11 ***

       MONTE CARLO PARAMETER DEFINITIONS

 dvtn_intra                      
     1:vdvtn         =  1.8941E-02  5:vdvtn         = -3.3411E-02
     2:vdvtn         = -9.3522E-04
 dvtp_intra                      
     3:vdvtp         = -2.3428E-02  6:vdvtp         =  1.6014E-02
     4:vdvtp         =  1.5683E-02
 dr_intra                        
     7:r1            =  2.1655E-08  8:r1            =  2.0944E-08
 dt_intra                        
     7:tox1          =  9.7858E-10  8:tox1          =  1.1724E-09
 9:mc_cnr_round                  
     9:mc_cnr_rnd    =  0.4163      10:mc_cnr_rnd   = -0.4174    
 11:mc_cnr_round                 
     11:mc_cnr_rnd   = -0.2350      12:mc_cnr_rnd   =  0.3212    
 13:mc_cnr_round                 
     13:mc_cnr_rnd   =  0.5580    
 14:mc_cnr_round                 
     14:mc_cnr_rnd   =  0.4815    

 ntrh=   3.1416 
 ntdh1=   3.1416 
 ntrl1=-8.686e-20
 ntdl=-6.161e-21
 ntdh2=   3.1416 
 ntrl2=-8.686e-20

          ***** job concluded

   *** monte carlo  index =           12 ***

       MONTE CARLO PARAMETER DEFINITIONS

 dvtn_intra                      
     1:vdvtn         = -2.1771E-02  5:vdvtn         = -3.8687E-03
     2:vdvtn         =  2.0086E-02
 dvtp_intra                      
     3:vdvtp         = -2.3693E-02  6:vdvtp         =  5.8217E-03
     4:vdvtp         =  2.3065E-02
 dr_intra                        
     7:r1            =  2.5707E-08  8:r1            =  1.7762E-08
 dt_intra                        
     7:tox1          =  1.0470E-09  8:tox1          =  9.2133E-10
 9:mc_cnr_round                  
     9:mc_cnr_rnd    =  0.1907      10:mc_cnr_rnd   = -0.2157    
 11:mc_cnr_round                 
     11:mc_cnr_rnd   = -0.6731      12:mc_cnr_rnd   =  7.3165E-02
 13:mc_cnr_round                 
     13:mc_cnr_rnd   = -3.8112E-02
 14:mc_cnr_round                 
     14:mc_cnr_rnd   = -0.2444    

 ntrh=   3.1416 
 ntdh1=   3.1416 
 ntrl1=   1.9416a
 ntdl=-3.805e-24
 ntdh2=   3.1416 
 ntrl2=   1.9416a

          ***** job concluded

   *** monte carlo  index =           13 ***

       MONTE CARLO PARAMETER DEFINITIONS

 dvtn_intra                      
     1:vdvtn         =  7.4672E-03  5:vdvtn         =  4.0197E-03
     2:vdvtn         = -2.5880E-02
 dvtp_intra                      
     3:vdvtp         =  1.7247E-02  6:vdvtp         =  9.7730E-03
     4:vdvtp         =  1.3106E-02
 dr_intra                        
     7:r1            =  2.4918E-08  8:r1            =  2.6196E-08
 dt_intra                        
     7:tox1          =  1.0889E-09  8:tox1          =  9.7025E-10
 9:mc_cnr_round                  
     9:mc_cnr_rnd    =  9.6713E-02  10:mc_cnr_rnd   = -0.4450    
 11:mc_cnr_round                 
     11:mc_cnr_rnd   =  6.2408E-02  12:mc_cnr_rnd   =  0.2124    
 13:mc_cnr_round                 
     13:mc_cnr_rnd   =  0.2028    
 14:mc_cnr_round                 
     14:mc_cnr_rnd   =  0.1667    

 ntrh=   3.1416 
 ntdh1=   3.1416 
 ntrl1= 1.748e-20
 ntdl=-6.170e-27
 ntdh2=   3.1416 
 ntrl2= 1.748e-20

          ***** job concluded

   *** monte carlo  index =           14 ***

       MONTE CARLO PARAMETER DEFINITIONS

 dvtn_intra                      
     1:vdvtn         = -2.0935E-02  5:vdvtn         =  1.3782E-02
     2:vdvtn         = -6.9965E-03
 dvtp_intra                      
     3:vdvtp         = -1.5168E-02  6:vdvtp         =  1.9626E-02
     4:vdvtp         = -1.8434E-02
 dr_intra                        
     7:r1            =  2.3166E-08  8:r1            =  2.2096E-08
 dt_intra                        
     7:tox1          =  1.0876E-09  8:tox1          =  9.8164E-10
 9:mc_cnr_round                  
     9:mc_cnr_rnd    =  1.3882E-02  10:mc_cnr_rnd   =  0.3066    
 11:mc_cnr_round                 
     11:mc_cnr_rnd   =  2.0185E-02  12:mc_cnr_rnd   = -4.8705E-03
 13:mc_cnr_round                 
     13:mc_cnr_rnd   =  0.1916    
 14:mc_cnr_round                 
     14:mc_cnr_rnd   = -0.2676    

 ntrh=   3.1416 
 ntdh1=   3.1416 
 ntrl1=-2.947e-20
 ntdl= 7.649e-25
 ntdh2=   3.1416 
 ntrl2=-2.947e-20

          ***** job concluded

   *** monte carlo  index =           15 ***

       MONTE CARLO PARAMETER DEFINITIONS

 dvtn_intra                      
     1:vdvtn         = -1.8593E-02  5:vdvtn         = -1.9983E-02
     2:vdvtn         = -8.8090E-03
 dvtp_intra                      
     3:vdvtp         = -1.4359E-02  6:vdvtp         = -1.0890E-02
     4:vdvtp         =  7.7691E-03
 dr_intra                        
     7:r1            =  2.1273E-08  8:r1            =  2.3974E-08
 dt_intra                        
     7:tox1          =  8.7600E-10  8:tox1          =  7.9230E-10
 9:mc_cnr_round                  
     9:mc_cnr_rnd    = -8.7634E-03  10:mc_cnr_rnd   = -0.2326    
 11:mc_cnr_round                 
     11:mc_cnr_rnd   =  0.3242      12:mc_cnr_rnd   =  0.1709    
 13:mc_cnr_round                 
     13:mc_cnr_rnd   = -0.4857    
 14:mc_cnr_round                 
     14:mc_cnr_rnd   =  0.3591    

 ntrh=   3.1416 
 ntdh1=   3.1416 
 ntrl1= 130.0889a
 ntdl= 2.293e-23
 ntdh2=   3.1416 
 ntrl2= 130.0889a

          ***** job concluded

   *** monte carlo  index =           16 ***

       MONTE CARLO PARAMETER DEFINITIONS

 dvtn_intra                      
     1:vdvtn         =  4.2634E-03  5:vdvtn         = -5.0600E-03
     2:vdvtn         =  1.1401E-02
 dvtp_intra                      
     3:vdvtp         =  1.2244E-02  6:vdvtp         = -1.4878E-03
     4:vdvtp         =  1.1472E-02
 dr_intra                        
     7:r1            =  2.3454E-08  8:r1            =  2.3479E-08
 dt_intra                        
     7:tox1          =  8.4848E-10  8:tox1          =  1.0198E-09
 9:mc_cnr_round                  
     9:mc_cnr_rnd    = -0.5017      10:mc_cnr_rnd   =  1.3684E-02
 11:mc_cnr_round                 
     11:mc_cnr_rnd   =  0.1374      12:mc_cnr_rnd   = -0.1912    
 13:mc_cnr_round                 
     13:mc_cnr_rnd   =  0.1290    
 14:mc_cnr_round                 
     14:mc_cnr_rnd   =  0.2282    

 ntrh=   3.1416 
 ntdh1=   3.1416 
 ntrl1=-6.493e-19
 ntdl=   2.8604a
 ntdh2=   3.1416 
 ntrl2=-6.493e-19

          ***** job concluded

   *** monte carlo  index =           17 ***

       MONTE CARLO PARAMETER DEFINITIONS

 dvtn_intra                      
     1:vdvtn         = -2.1261E-02  5:vdvtn         =  3.1421E-02
     2:vdvtn         =  2.8002E-02
 dvtp_intra                      
     3:vdvtp         =  2.7479E-04  6:vdvtp         =  1.6940E-02
     4:vdvtp         = -1.0020E-02
 dr_intra                        
     7:r1            =  1.9560E-08  8:r1            =  2.3250E-08
 dt_intra                        
     7:tox1          =  1.0861E-09  8:tox1          =  1.0882E-09
 9:mc_cnr_round                  
     9:mc_cnr_rnd    = -0.1248      10:mc_cnr_rnd   = -0.6080    
 11:mc_cnr_round                 
     11:mc_cnr_rnd   =  4.0507E-02  12:mc_cnr_rnd   =  0.3724    
 13:mc_cnr_round                 
     13:mc_cnr_rnd   = -0.8328    
 14:mc_cnr_round                 
     14:mc_cnr_rnd   =  0.1854    

 ntrh=   3.1416 
 ntdh1=   3.1416 
 ntrl1= 3.617e-19
 ntdl=-1.773e-20
 ntdh2=   3.1416 
 ntrl2= 3.617e-19

          ***** job concluded

   *** monte carlo  index =           18 ***

       MONTE CARLO PARAMETER DEFINITIONS

 dvtn_intra                      
     1:vdvtn         =  1.3788E-02  5:vdvtn         = -1.1277E-02
     2:vdvtn         = -1.8897E-03
 dvtp_intra                      
     3:vdvtp         = -1.2130E-02  6:vdvtp         = -7.6451E-03
     4:vdvtp         =  1.4238E-02
 dr_intra                        
     7:r1            =  2.0809E-08  8:r1            =  2.3500E-08
 dt_intra                        
     7:tox1          =  9.7732E-10  8:tox1          =  1.2411E-09
 9:mc_cnr_round                  
     9:mc_cnr_rnd    =  0.3227      10:mc_cnr_rnd   = -0.1603    
 11:mc_cnr_round                 
     11:mc_cnr_rnd   = -0.6670      12:mc_cnr_rnd   =  0.3657    
 13:mc_cnr_round                 
     13:mc_cnr_rnd   =  0.2637    
 14:mc_cnr_round                 
     14:mc_cnr_rnd   = -0.3926    

 ntrh=   3.1416 
 ntdh1=   3.1416 
 ntrl1=-4.353e-20
 ntdl= 5.987e-25
 ntdh2=   3.1416 
 ntrl2=-4.353e-20

          ***** job concluded

   *** monte carlo  index =           19 ***

       MONTE CARLO PARAMETER DEFINITIONS

 dvtn_intra                      
     1:vdvtn         = -2.7458E-02  5:vdvtn         =  5.0270E-03
     2:vdvtn         = -1.6541E-03
 dvtp_intra                      
     3:vdvtp         =  1.5664E-02  6:vdvtp         = -4.2322E-03
     4:vdvtp         = -3.9745E-03
 dr_intra                        
     7:r1            =  2.0837E-08  8:r1            =  2.7776E-08
 dt_intra                        
     7:tox1          =  9.0571E-10  8:tox1          =  1.0004E-09
 9:mc_cnr_round                  
     9:mc_cnr_rnd    = -0.1792      10:mc_cnr_rnd   = -0.1877    
 11:mc_cnr_round                 
     11:mc_cnr_rnd   =  0.1971      12:mc_cnr_rnd   =  0.4250    
 13:mc_cnr_round                 
     13:mc_cnr_rnd   =  0.2160    
 14:mc_cnr_round                 
     14:mc_cnr_rnd   = -0.1465    

 ntrh=   3.1416 
 ntdh1=   3.1416 
 ntrl1= 3.728e-21
 ntdl=-4.746e-23
 ntdh2=   3.1416 
 ntrl2= 3.728e-21

          ***** job concluded

   *** monte carlo  index =           20 ***

       MONTE CARLO PARAMETER DEFINITIONS

 dvtn_intra                      
     1:vdvtn         =  1.6217E-02  5:vdvtn         = -3.2957E-02
     2:vdvtn         = -2.5118E-02
 dvtp_intra                      
     3:vdvtp         = -3.9596E-03  6:vdvtp         =  1.9232E-04
     4:vdvtp         =  1.1209E-02
 dr_intra                        
     7:r1            =  2.4333E-08  8:r1            =  2.2978E-08
 dt_intra                        
     7:tox1          =  1.0084E-09  8:tox1          =  1.0228E-09
 9:mc_cnr_round                  
     9:mc_cnr_rnd    =  0.1880      10:mc_cnr_rnd   =  4.0669E-02
 11:mc_cnr_round                 
     11:mc_cnr_rnd   = -0.1912      12:mc_cnr_rnd   =  0.2573    
 13:mc_cnr_round                 
     13:mc_cnr_rnd   =  0.6929    
 14:mc_cnr_round                 
     14:mc_cnr_rnd   = -0.3331    

 ntrh=   3.1416 
 ntdh1=   3.1416 
 ntrl1=-2.404e-21
 ntdl=-1.628e-21
 ntdh2=   3.1416 
 ntrl2=-2.404e-21

          ***** job concluded

   *** monte carlo  index =           21 ***

       MONTE CARLO PARAMETER DEFINITIONS

 dvtn_intra                      
     1:vdvtn         = -2.7450E-02  5:vdvtn         =  1.2418E-02
     2:vdvtn         = -1.1383E-02
 dvtp_intra                      
     3:vdvtp         =  1.6850E-04  6:vdvtp         = -6.3702E-04
     4:vdvtp         =  2.8265E-02
 dr_intra                        
     7:r1            =  2.2384E-08  8:r1            =  2.1804E-08
 dt_intra                        
     7:tox1          =  1.0343E-09  8:tox1          =  9.1642E-10
 9:mc_cnr_round                  
     9:mc_cnr_rnd    = -0.4696      10:mc_cnr_rnd   = -3.7714E-02
 11:mc_cnr_round                 
     11:mc_cnr_rnd   =  0.1096      12:mc_cnr_rnd   = -5.5797E-02
 13:mc_cnr_round                 
     13:mc_cnr_rnd   =  0.3861    
 14:mc_cnr_round                 
     14:mc_cnr_rnd   =  6.2364E-02

 ntrh=   3.1416 
 ntdh1=   3.1416 
 ntrl1= 6.771e-20
 ntdl=-5.963e-21
 ntdh2=   3.1416 
 ntrl2= 6.771e-20

          ***** job concluded

   *** monte carlo  index =           22 ***

       MONTE CARLO PARAMETER DEFINITIONS

 dvtn_intra                      
     1:vdvtn         =  7.1040E-03  5:vdvtn         =  1.2039E-02
     2:vdvtn         =  3.9879E-03
 dvtp_intra                      
     3:vdvtp         = -1.2355E-03  6:vdvtp         =  1.2313E-02
     4:vdvtp         =  9.6100E-03
 dr_intra                        
     7:r1            =  2.5434E-08  8:r1            =  2.2882E-08
 dt_intra                        
     7:tox1          =  1.0928E-09  8:tox1          =  1.0456E-09
 9:mc_cnr_round                  
     9:mc_cnr_rnd    =  0.4225      10:mc_cnr_rnd   = -0.1649    
 11:mc_cnr_round                 
     11:mc_cnr_rnd   = -0.2095      12:mc_cnr_rnd   = -0.2523    
 13:mc_cnr_round                 
     13:mc_cnr_rnd   = -8.4173E-02
 14:mc_cnr_round                 
     14:mc_cnr_rnd   = -0.3726    

 ntrh=   3.1416 
 ntdh1=   3.1416 
 ntrl1= -76.0893a
 ntdl=-6.202e-24
 ntdh2=   3.1416 
 ntrl2= -76.0893a

          ***** job concluded

   *** monte carlo  index =           23 ***

       MONTE CARLO PARAMETER DEFINITIONS

 dvtn_intra                      
     1:vdvtn         = -2.3831E-03  5:vdvtn         = -2.9733E-02
     2:vdvtn         =  4.8379E-03
 dvtp_intra                      
     3:vdvtp         =  8.4013E-03  6:vdvtp         =  3.3417E-03
     4:vdvtp         =  1.4581E-02
 dr_intra                        
     7:r1            =  2.5716E-08  8:r1            =  2.1383E-08
 dt_intra                        
     7:tox1          =  8.4919E-10  8:tox1          =  8.6094E-10
 9:mc_cnr_round                  
     9:mc_cnr_rnd    = -0.1009      10:mc_cnr_rnd   = -0.2245    
 11:mc_cnr_round                 
     11:mc_cnr_rnd   = -7.2333E-02  12:mc_cnr_rnd   = -0.1575    
 13:mc_cnr_round                 
     13:mc_cnr_rnd   =  0.1029    
 14:mc_cnr_round                 
     14:mc_cnr_rnd   = -0.1093    

 ntrh=   3.1416 
 ntdh1=   3.1416 
 ntrl1= 3.514e-22
 ntdl= 4.694e-23
 ntdh2=   3.1416 
 ntrl2= 3.514e-22

          ***** job concluded

   *** monte carlo  index =           24 ***

       MONTE CARLO PARAMETER DEFINITIONS

 dvtn_intra                      
     1:vdvtn         =  5.1079E-03  5:vdvtn         =  2.4622E-02
     2:vdvtn         = -1.3078E-02
 dvtp_intra                      
     3:vdvtp         =  6.1403E-03  6:vdvtp         =  8.4172E-03
     4:vdvtp         =  1.1981E-02
 dr_intra                        
     7:r1            =  1.8561E-08  8:r1            =  2.1949E-08
 dt_intra                        
     7:tox1          =  1.1086E-09  8:tox1          =  1.2538E-09
 9:mc_cnr_round                  
     9:mc_cnr_rnd    = -3.6580E-02  10:mc_cnr_rnd   =  5.1654E-02
 11:mc_cnr_round                 
     11:mc_cnr_rnd   = -0.5738      12:mc_cnr_rnd   =  0.2306    
 13:mc_cnr_round                 
     13:mc_cnr_rnd   =  0.8243    
 14:mc_cnr_round                 
     14:mc_cnr_rnd   =  2.8336E-02

 ntrh=   3.1416 
 ntdh1=   3.1416 
 ntrl1= 3.985e-20
 ntdl=-1.984e-25
 ntdh2=   3.1416 
 ntrl2= 3.985e-20

          ***** job concluded

   *** monte carlo  index =           25 ***

       MONTE CARLO PARAMETER DEFINITIONS

 dvtn_intra                      
     1:vdvtn         = -2.8454E-02  5:vdvtn         = -2.2564E-02
     2:vdvtn         = -1.9576E-02
 dvtp_intra                      
     3:vdvtp         =  1.0719E-03  6:vdvtp         =  5.1468E-03
     4:vdvtp         = -1.8990E-02
 dr_intra                        
     7:r1            =  2.2756E-08  8:r1            =  2.3083E-08
 dt_intra                        
     7:tox1          =  9.0613E-10  8:tox1          =  9.3268E-10
 9:mc_cnr_round                  
     9:mc_cnr_rnd    =  0.3393      10:mc_cnr_rnd   = -0.1561    
 11:mc_cnr_round                 
     11:mc_cnr_rnd   = -0.3646      12:mc_cnr_rnd   = -0.4689    
 13:mc_cnr_round                 
     13:mc_cnr_rnd   = -2.1025E-02
 14:mc_cnr_round                 
     14:mc_cnr_rnd   = -3.0849E-02

 ntrh=   3.1416 
 ntdh1=   3.1416 
 ntrl1= 1.643e-19
 ntdl=  43.8561a
 ntdh2=   3.1416 
 ntrl2= 1.643e-19

          ***** job concluded

   *** monte carlo  index =           26 ***

       MONTE CARLO PARAMETER DEFINITIONS

 dvtn_intra                      
     1:vdvtn         = -4.3977E-03  5:vdvtn         =  1.4158E-02
     2:vdvtn         =  9.9377E-04
 dvtp_intra                      
     3:vdvtp         =  4.7156E-03  6:vdvtp         = -2.9114E-03
     4:vdvtp         =  5.9171E-03
 dr_intra                        
     7:r1            =  1.9881E-08  8:r1            =  2.2409E-08
 dt_intra                        
     7:tox1          =  1.2655E-09  8:tox1          =  1.0419E-09
 9:mc_cnr_round                  
     9:mc_cnr_rnd    = -0.3058      10:mc_cnr_rnd   =  0.4492    
 11:mc_cnr_round                 
     11:mc_cnr_rnd   = -0.2109      12:mc_cnr_rnd   = -0.1802    
 13:mc_cnr_round                 
     13:mc_cnr_rnd   =  0.4267    
 14:mc_cnr_round                 
     14:mc_cnr_rnd   = -0.1932    

 ntrh=   3.1416 
 ntdh1=   3.1416 
 ntrl1=-7.268e-22
 ntdl= 2.206e-20
 ntdh2=   3.1416 
 ntrl2=-7.268e-22

          ***** job concluded

   *** monte carlo  index =           27 ***

       MONTE CARLO PARAMETER DEFINITIONS

 dvtn_intra                      
     1:vdvtn         =  9.1143E-03  5:vdvtn         =  2.2074E-02
     2:vdvtn         =  1.2364E-02
 dvtp_intra                      
     3:vdvtp         = -1.9659E-03  6:vdvtp         =  8.4577E-03
     4:vdvtp         =  7.7720E-03
 dr_intra                        
     7:r1            =  1.7217E-08  8:r1            =  2.0826E-08
 dt_intra                        
     7:tox1          =  9.3103E-10  8:tox1          =  9.5323E-10
 9:mc_cnr_round                  
     9:mc_cnr_rnd    =  0.1645      10:mc_cnr_rnd   =  8.7863E-02
 11:mc_cnr_round                 
     11:mc_cnr_rnd   =  0.2174      12:mc_cnr_rnd   =  0.2592    
 13:mc_cnr_round                 
     13:mc_cnr_rnd   = -5.9480E-02
 14:mc_cnr_round                 
     14:mc_cnr_rnd   =  0.1504    

 ntrh=   3.1416 
 ntdh1=   3.1416 
 ntrl1= 3.541e-20
 ntdl=-5.425e-19
 ntdh2=   3.1416 
 ntrl2= 3.541e-20

          ***** job concluded

   *** monte carlo  index =           28 ***

       MONTE CARLO PARAMETER DEFINITIONS

 dvtn_intra                      
     1:vdvtn         = -1.8882E-02  5:vdvtn         = -3.1234E-03
     2:vdvtn         = -1.4108E-02
 dvtp_intra                      
     3:vdvtp         =  1.6047E-02  6:vdvtp         = -5.6428E-03
     4:vdvtp         = -7.0061E-03
 dr_intra                        
     7:r1            =  1.9784E-08  8:r1            =  2.0227E-08
 dt_intra                        
     7:tox1          =  7.5112E-10  8:tox1          =  9.5048E-10
 9:mc_cnr_round                  
     9:mc_cnr_rnd    =  0.1704      10:mc_cnr_rnd   =  3.8292E-02
 11:mc_cnr_round                 
     11:mc_cnr_rnd   = -1.2279E-02  12:mc_cnr_rnd   = -0.3567    
 13:mc_cnr_round                 
     13:mc_cnr_rnd   = -0.1320    
 14:mc_cnr_round                 
     14:mc_cnr_rnd   = -0.1949    

 ntrh=   3.1416 
 ntdh1=   3.1416 
 ntrl1=-1.082e-20
 ntdl=  19.2519a
 ntdh2=   3.1416 
 ntrl2=-1.082e-20

          ***** job concluded

   *** monte carlo  index =           29 ***

       MONTE CARLO PARAMETER DEFINITIONS

 dvtn_intra                      
     1:vdvtn         = -3.1426E-02  5:vdvtn         = -2.8656E-03
     2:vdvtn         = -4.1206E-03
 dvtp_intra                      
     3:vdvtp         =  6.8458E-04  6:vdvtp         =  1.2013E-02
     4:vdvtp         = -3.7899E-03
 dr_intra                        
     7:r1            =  2.3211E-08  8:r1            =  2.3560E-08
 dt_intra                        
     7:tox1          =  1.0689E-09  8:tox1          =  8.8724E-10
 9:mc_cnr_round                  
     9:mc_cnr_rnd    = -2.8026E-02  10:mc_cnr_rnd   = -9.3970E-02
 11:mc_cnr_round                 
     11:mc_cnr_rnd   =  0.2760      12:mc_cnr_rnd   =  0.1219    
 13:mc_cnr_round                 
     13:mc_cnr_rnd   =  0.1379    
 14:mc_cnr_round                 
     14:mc_cnr_rnd   = -3.0947E-02

 ntrh=   3.1416 
 ntdh1=   3.1416 
 ntrl1= 1.536e-20
 ntdl= 8.699e-24
 ntdh2=   3.1416 
 ntrl2= 1.536e-20

          ***** job concluded

   *** monte carlo  index =           30 ***

       MONTE CARLO PARAMETER DEFINITIONS

 dvtn_intra                      
     1:vdvtn         = -1.0834E-02  5:vdvtn         =  5.9976E-03
     2:vdvtn         =  3.0544E-03
 dvtp_intra                      
     3:vdvtp         =  2.5603E-02  6:vdvtp         =  6.0592E-03
     4:vdvtp         =  3.9059E-03
 dr_intra                        
     7:r1            =  2.1023E-08  8:r1            =  2.3507E-08
 dt_intra                        
     7:tox1          =  9.3677E-10  8:tox1          =  9.2126E-10
 9:mc_cnr_round                  
     9:mc_cnr_rnd    =  0.1405      10:mc_cnr_rnd   = -0.3064    
 11:mc_cnr_round                 
     11:mc_cnr_rnd   =  0.3957      12:mc_cnr_rnd   = -0.5407    
 13:mc_cnr_round                 
     13:mc_cnr_rnd   = -0.4298    
 14:mc_cnr_round                 
     14:mc_cnr_rnd   = -0.1291    

 ntrh=   3.1416 
 ntdh1=   3.1416 
 ntrl1= 7.677e-20
 ntdl=-5.160e-21
 ntdh2=   3.1416 
 ntrl2= 7.677e-20

          ***** job concluded

   *** monte carlo  index =           31 ***

       MONTE CARLO PARAMETER DEFINITIONS

 dvtn_intra                      
     1:vdvtn         =  1.7356E-02  5:vdvtn         = -4.3084E-02
     2:vdvtn         =  7.7169E-03
 dvtp_intra                      
     3:vdvtp         =  4.1663E-03  6:vdvtp         = -4.0455E-03
     4:vdvtp         =  2.4375E-02
 dr_intra                        
     7:r1            =  2.1552E-08  8:r1            =  2.0479E-08
 dt_intra                        
     7:tox1          =  1.0784E-09  8:tox1          =  8.8364E-10
 9:mc_cnr_round                  
     9:mc_cnr_rnd    = -0.1833      10:mc_cnr_rnd   = -0.6812    
 11:mc_cnr_round                 
     11:mc_cnr_rnd   = -2.5286E-04  12:mc_cnr_rnd   =  0.5461    
 13:mc_cnr_round                 
     13:mc_cnr_rnd   =  0.2095    
 14:mc_cnr_round                 
     14:mc_cnr_rnd   = -0.1190    

 ntrh=   3.1416 
 ntdh1=   3.1416 
 ntrl1= 2.523e-19
 ntdl= 5.936e-22
 ntdh2=   3.1416 
 ntrl2= 2.523e-19

          ***** job concluded

   *** monte carlo  index =           32 ***

       MONTE CARLO PARAMETER DEFINITIONS

 dvtn_intra                      
     1:vdvtn         = -1.5073E-02  5:vdvtn         = -9.2269E-04
     2:vdvtn         =  2.5323E-03
 dvtp_intra                      
     3:vdvtp         = -7.7988E-03  6:vdvtp         =  4.1755E-03
     4:vdvtp         =  3.0093E-02
 dr_intra                        
     7:r1            =  1.9109E-08  8:r1            =  2.0499E-08
 dt_intra                        
     7:tox1          =  1.1025E-09  8:tox1          =  1.2229E-09
 9:mc_cnr_round                  
     9:mc_cnr_rnd    =  0.4183      10:mc_cnr_rnd   = -0.5379    
 11:mc_cnr_round                 
     11:mc_cnr_rnd   = -0.1465      12:mc_cnr_rnd   = -0.1522    
 13:mc_cnr_round                 
     13:mc_cnr_rnd   =  0.1874    
 14:mc_cnr_round                 
     14:mc_cnr_rnd   = -7.6329E-03

 ntrh=   3.1416 
 ntdh1=   3.1416 
 ntrl1=  45.3679a
 ntdl=-3.826e-22
 ntdh2=   3.1416 
 ntrl2=  45.3679a

          ***** job concluded

   *** monte carlo  index =           33 ***

       MONTE CARLO PARAMETER DEFINITIONS

 dvtn_intra                      
     1:vdvtn         = -2.1110E-02  5:vdvtn         = -1.4476E-02
     2:vdvtn         = -3.1294E-02
 dvtp_intra                      
     3:vdvtp         =  1.2659E-02  6:vdvtp         = -2.1010E-03
     4:vdvtp         =  3.6965E-02
 dr_intra                        
     7:r1            =  2.4317E-08  8:r1            =  1.8162E-08
 dt_intra                        
     7:tox1          =  1.0311E-09  8:tox1          =  9.3792E-10
 9:mc_cnr_round                  
     9:mc_cnr_rnd    = -0.1389      10:mc_cnr_rnd   =  0.1730    
 11:mc_cnr_round                 
     11:mc_cnr_rnd   =  0.1758      12:mc_cnr_rnd   = -0.4213    
 13:mc_cnr_round                 
     13:mc_cnr_rnd   = -0.2198    
 14:mc_cnr_round                 
     14:mc_cnr_rnd   = -0.2475    

 ntrh=   3.1416 
 ntdh1=   3.1416 
 ntrl1= 7.404e-22
 ntdl=-2.526e-22
 ntdh2=   3.1416 
 ntrl2= 7.404e-22

          ***** job concluded

   *** monte carlo  index =           34 ***

       MONTE CARLO PARAMETER DEFINITIONS

 dvtn_intra                      
     1:vdvtn         =  2.5501E-03  5:vdvtn         = -3.3476E-03
     2:vdvtn         =  2.6517E-02
 dvtp_intra                      
     3:vdvtp         =  1.7108E-02  6:vdvtp         = -2.8339E-03
     4:vdvtp         =  7.2619E-03
 dr_intra                        
     7:r1            =  1.6043E-08  8:r1            =  2.2266E-08
 dt_intra                        
     7:tox1          =  1.0117E-09  8:tox1          =  9.0968E-10
 9:mc_cnr_round                  
     9:mc_cnr_rnd    = -0.1521      10:mc_cnr_rnd   =  0.2785    
 11:mc_cnr_round                 
     11:mc_cnr_rnd   = -0.2018      12:mc_cnr_rnd   =  0.2692    
 13:mc_cnr_round                 
     13:mc_cnr_rnd   = -9.5109E-02
 14:mc_cnr_round                 
     14:mc_cnr_rnd   =  0.2765    

 ntrh=   3.1416 
 ntdh1=   3.1416 
 ntrl1=-2.027e-21
 ntdl= 1.321e-19
 ntdh2=   3.1416 
 ntrl2=-2.027e-21

          ***** job concluded

   *** monte carlo  index =           35 ***

       MONTE CARLO PARAMETER DEFINITIONS

 dvtn_intra                      
     1:vdvtn         =  3.8718E-02  5:vdvtn         =  6.1000E-03
     2:vdvtn         = -1.7697E-02
 dvtp_intra                      
     3:vdvtp         = -3.3276E-03  6:vdvtp         = -1.8517E-02
     4:vdvtp         =  1.7880E-02
 dr_intra                        
     7:r1            =  2.4489E-08  8:r1            =  1.9503E-08
 dt_intra                        
     7:tox1          =  1.1096E-09  8:tox1          =  1.0022E-09
 9:mc_cnr_round                  
     9:mc_cnr_rnd    =  0.2535      10:mc_cnr_rnd   =  3.8399E-02
 11:mc_cnr_round                 
     11:mc_cnr_rnd   = -7.6299E-02  12:mc_cnr_rnd   = -0.1249    
 13:mc_cnr_round                 
     13:mc_cnr_rnd   =  0.6406    
 14:mc_cnr_round                 
     14:mc_cnr_rnd   =  7.3917E-02

 ntrh=   3.1416 
 ntdh1=   3.1416 
 ntrl1=-1.517e-20
 ntdl=-9.021e-24
 ntdh2=   3.1416 
 ntrl2=-1.517e-20

          ***** job concluded

   *** monte carlo  index =           36 ***

       MONTE CARLO PARAMETER DEFINITIONS

 dvtn_intra                      
     1:vdvtn         =  1.1168E-03  5:vdvtn         = -1.1400E-02
     2:vdvtn         = -1.9523E-03
 dvtp_intra                      
     3:vdvtp         = -5.6596E-03  6:vdvtp         =  5.0604E-04
     4:vdvtp         = -8.4955E-03
 dr_intra                        
     7:r1            =  2.4763E-08  8:r1            =  2.5149E-08
 dt_intra                        
     7:tox1          =  1.2094E-09  8:tox1          =  1.0754E-09
 9:mc_cnr_round                  
     9:mc_cnr_rnd    = -0.4684      10:mc_cnr_rnd   = -0.5522    
 11:mc_cnr_round                 
     11:mc_cnr_rnd   =  0.1934      12:mc_cnr_rnd   =  0.6261    
 13:mc_cnr_round                 
     13:mc_cnr_rnd   =  0.3234    
 14:mc_cnr_round                 
     14:mc_cnr_rnd   =  0.2766    

 ntrh=   3.1416 
 ntdh1=   3.1416 
 ntrl1= 1.403e-19
 ntdl=-1.102e-24
 ntdh2=   3.1416 
 ntrl2= 1.403e-19

          ***** job concluded

[...]
     4:vdvtp         = -1.2019E-03
 dr_intra                        
     7:r1            =  1.7646E-08  8:r1            =  1.5761E-08
 dt_intra                        
     7:tox1          =  9.4265E-10  8:tox1          =  9.5884E-10
 9:mc_cnr_round                  
     9:mc_cnr_rnd    = -5.5199E-02  10:mc_cnr_rnd   = -3.6678E-02
 11:mc_cnr_round                 
     11:mc_cnr_rnd   = -5.0172E-02  12:mc_cnr_rnd   = -0.5535    
 13:mc_cnr_round                 
     13:mc_cnr_rnd   =  0.1659    
 14:mc_cnr_round                 
     14:mc_cnr_rnd   =  0.1932    

 ntrh=   3.1416 
 ntdh1=   3.1416 
 ntrl1=-7.477e-22
 ntdl=   1.7244a
 ntdh2=   3.1416 
 ntrl2=-7.477e-22

          ***** job concluded

   *** monte carlo  index =          986 ***

       MONTE CARLO PARAMETER DEFINITIONS

 dvtn_intra                      
     1:vdvtn         = -6.8419E-02  5:vdvtn         = -2.3175E-02
     2:vdvtn         = -3.8145E-02
 dvtp_intra                      
     3:vdvtp         =  4.7810E-03  6:vdvtp         =  7.2036E-03
     4:vdvtp         = -9.8883E-03
 dr_intra                        
     7:r1            =  1.9833E-08  8:r1            =  1.9245E-08
 dt_intra                        
     7:tox1          =  9.6018E-10  8:tox1          =  1.1025E-09
 9:mc_cnr_round                  
     9:mc_cnr_rnd    =  0.5227      10:mc_cnr_rnd   =  0.2706    
 11:mc_cnr_round                 
     11:mc_cnr_rnd   = -0.2095      12:mc_cnr_rnd   = -0.1568    
 13:mc_cnr_round                 
     13:mc_cnr_rnd   =  0.3018    
 14:mc_cnr_round                 
     14:mc_cnr_rnd   = -5.1482E-02

 ntrh=   3.1416 
 ntdh1=   3.1416 
 ntrl1= 2.945e-21
 ntdl=  -2.4747a
 ntdh2=   3.1416 
 ntrl2= 2.945e-21

          ***** job concluded

   *** monte carlo  index =          987 ***

       MONTE CARLO PARAMETER DEFINITIONS

 dvtn_intra                      
     1:vdvtn         =  2.8204E-02  5:vdvtn         =  7.7189E-03
     2:vdvtn         =  1.3532E-04
 dvtp_intra                      
     3:vdvtp         = -1.2118E-02  6:vdvtp         = -1.8567E-02
     4:vdvtp         = -1.3833E-02
 dr_intra                        
     7:r1            =  2.2174E-08  8:r1            =  2.1654E-08
 dt_intra                        
     7:tox1          =  1.2301E-09  8:tox1          =  1.0531E-09
 9:mc_cnr_round                  
     9:mc_cnr_rnd    = -0.1828      10:mc_cnr_rnd   =  0.5862    
 11:mc_cnr_round                 
     11:mc_cnr_rnd   = -0.1370      12:mc_cnr_rnd   =  0.3360    
 13:mc_cnr_round                 
     13:mc_cnr_rnd   = -0.2622    
 14:mc_cnr_round                 
     14:mc_cnr_rnd   = -0.1338    

 ntrh=   3.1416 
 ntdh1=   3.1416 
 ntrl1=-2.247e-20
 ntdl=-5.106e-21
 ntdh2=   3.1416 
 ntrl2=-2.247e-20

          ***** job concluded

   *** monte carlo  index =          988 ***

       MONTE CARLO PARAMETER DEFINITIONS

 dvtn_intra                      
     1:vdvtn         =  4.3494E-04  5:vdvtn         =  1.7366E-02
     2:vdvtn         =  3.0552E-02
 dvtp_intra                      
     3:vdvtp         = -1.1074E-02  6:vdvtp         =  2.2145E-02
     4:vdvtp         = -1.1302E-02
 dr_intra                        
     7:r1            =  2.1272E-08  8:r1            =  2.4473E-08
 dt_intra                        
     7:tox1          =  1.0210E-09  8:tox1          =  9.4192E-10
 9:mc_cnr_round                  
     9:mc_cnr_rnd    = -0.3587      10:mc_cnr_rnd   = -0.2258    
 11:mc_cnr_round                 
     11:mc_cnr_rnd   = -0.2037      12:mc_cnr_rnd   =  0.2798    
 13:mc_cnr_round                 
     13:mc_cnr_rnd   = -0.1222    
 14:mc_cnr_round                 
     14:mc_cnr_rnd   =  0.4762    

 ntrh=   3.1416 
 ntdh1=   3.1416 
 ntrl1=-8.460e-23
 ntdl= 7.014e-22
 ntdh2=   3.1416 
 ntrl2=-8.460e-23

          ***** job concluded

   *** monte carlo  index =          989 ***

       MONTE CARLO PARAMETER DEFINITIONS

 dvtn_intra                      
     1:vdvtn         =  1.6756E-02  5:vdvtn         =  2.8231E-02
     2:vdvtn         =  2.2059E-02
 dvtp_intra                      
     3:vdvtp         =  1.6315E-02  6:vdvtp         =  3.7283E-03
     4:vdvtp         =  1.3023E-02
 dr_intra                        
     7:r1            =  2.5323E-08  8:r1            =  2.5493E-08
 dt_intra                        
     7:tox1          =  7.2615E-10  8:tox1          =  9.3843E-10
 9:mc_cnr_round                  
     9:mc_cnr_rnd    = -0.3287      10:mc_cnr_rnd   = -7.9851E-02
 11:mc_cnr_round                 
     11:mc_cnr_rnd   =  0.2444      12:mc_cnr_rnd   = -7.5940E-02
 13:mc_cnr_round                 
     13:mc_cnr_rnd   =  0.2215    
 14:mc_cnr_round                 
     14:mc_cnr_rnd   = -7.5830E-02

 ntrh=   3.1416 
 ntdh1=   3.1416 
 ntrl1=-8.966e-22
 ntdl=-4.608e-22
 ntdh2= 749.9166m
 ntrl2=-8.966e-22

          ***** job concluded

   *** monte carlo  index =          990 ***

       MONTE CARLO PARAMETER DEFINITIONS

 dvtn_intra                      
     1:vdvtn         =  3.6109E-04  5:vdvtn         = -6.9152E-03
     2:vdvtn         = -4.2320E-03
 dvtp_intra                      
     3:vdvtp         =  6.4409E-03  6:vdvtp         = -8.3422E-03
     4:vdvtp         =  4.5415E-03
 dr_intra                        
     7:r1            =  2.1799E-08  8:r1            =  1.9026E-08
 dt_intra                        
     7:tox1          =  1.1649E-09  8:tox1          =  9.8451E-10
 9:mc_cnr_round                  
     9:mc_cnr_rnd    = -9.5713E-02  10:mc_cnr_rnd   = -8.7133E-03
 11:mc_cnr_round                 
     11:mc_cnr_rnd   = -0.5960      12:mc_cnr_rnd   =  0.1182    
 13:mc_cnr_round                 
     13:mc_cnr_rnd   =  4.3198E-02
 14:mc_cnr_round                 
     14:mc_cnr_rnd   =  0.2112    

 ntrh=   3.1416 
 ntdh1=   3.1416 
 ntrl1=-1.423e-21
 ntdl=-6.948e-25
 ntdh2=   3.1416 
 ntrl2=-1.423e-21

          ***** job concluded

   *** monte carlo  index =          991 ***

       MONTE CARLO PARAMETER DEFINITIONS

 dvtn_intra                      
     1:vdvtn         =  2.0699E-02  5:vdvtn         = -2.4778E-02
     2:vdvtn         = -1.2604E-02
 dvtp_intra                      
     3:vdvtp         =  1.0161E-02  6:vdvtp         =  7.8045E-04
     4:vdvtp         =  1.3179E-02
 dr_intra                        
     7:r1            =  2.5753E-08  8:r1            =  2.2308E-08
 dt_intra                        
     7:tox1          =  1.0743E-09  8:tox1          =  9.8688E-10
 9:mc_cnr_round                  
     9:mc_cnr_rnd    = -3.1783E-02  10:mc_cnr_rnd   = -0.4184    
 11:mc_cnr_round                 
     11:mc_cnr_rnd   = -0.3920      12:mc_cnr_rnd   = -0.1136    
 13:mc_cnr_round                 
     13:mc_cnr_rnd   = -0.4019    
 14:mc_cnr_round                 
     14:mc_cnr_rnd   = -0.5477    

 ntrh=   3.1416 
 ntdh1=   3.1416 
 ntrl1=-6.422e-21
 ntdl= 3.499e-21
 ntdh2=   3.1416 
 ntrl2=-6.422e-21

          ***** job concluded

   *** monte carlo  index =          992 ***

       MONTE CARLO PARAMETER DEFINITIONS

 dvtn_intra                      
     1:vdvtn         =  1.5581E-02  5:vdvtn         = -7.2205E-03
     2:vdvtn         = -1.9180E-04
 dvtp_intra                      
     3:vdvtp         =  2.7237E-03  6:vdvtp         = -4.0354E-03
     4:vdvtp         =  1.4226E-02
 dr_intra                        
     7:r1            =  2.0236E-08  8:r1            =  2.2026E-08
 dt_intra                        
     7:tox1          =  9.0824E-10  8:tox1          =  1.0177E-09
 9:mc_cnr_round                  
     9:mc_cnr_rnd    = -1.6812E-02  10:mc_cnr_rnd   =  0.1286    
 11:mc_cnr_round                 
     11:mc_cnr_rnd   =  0.1605      12:mc_cnr_rnd   = -0.3259    
 13:mc_cnr_round                 
     13:mc_cnr_rnd   = -0.4379    
 14:mc_cnr_round                 
     14:mc_cnr_rnd   =  1.0283E-02

 ntrh=   3.1416 
 ntdh1=   3.1416 
 ntrl1= 2.982e-20
 ntdl=-2.508e-20
 ntdh2=   3.1416 
 ntrl2= 2.982e-20

          ***** job concluded

   *** monte carlo  index =          993 ***

       MONTE CARLO PARAMETER DEFINITIONS

 dvtn_intra                      
     1:vdvtn         = -1.7453E-02  5:vdvtn         =  3.6098E-03
     2:vdvtn         =  1.1972E-02
 dvtp_intra                      
     3:vdvtp         =  4.4599E-03  6:vdvtp         = -9.4874E-03
     4:vdvtp         = -9.4258E-03
 dr_intra                        
     7:r1            =  2.0822E-08  8:r1            =  1.9904E-08
 dt_intra                        
     7:tox1          =  8.8217E-10  8:tox1          =  1.0834E-09
 9:mc_cnr_round                  
     9:mc_cnr_rnd    =  0.2491      10:mc_cnr_rnd   = -0.1744    
 11:mc_cnr_round                 
     11:mc_cnr_rnd   =  0.1981      12:mc_cnr_rnd   =  0.4811    
 13:mc_cnr_round                 
     13:mc_cnr_rnd   =  0.2284    
 14:mc_cnr_round                 
     14:mc_cnr_rnd   = -0.2638    

 ntrh=   3.1416 
 ntdh1=   3.1416 
 ntrl1=-1.208e-22
 ntdl=-8.707e-21
 ntdh2=   3.1416 
 ntrl2=-1.208e-22

          ***** job concluded

   *** monte carlo  index =          994 ***

       MONTE CARLO PARAMETER DEFINITIONS

 dvtn_intra                      
     1:vdvtn         =  3.7448E-02  5:vdvtn         =  1.1841E-03
     2:vdvtn         =  8.0285E-03
 dvtp_intra                      
     3:vdvtp         = -1.1611E-02  6:vdvtp         =  8.4487E-03
     4:vdvtp         =  9.6543E-04
 dr_intra                        
     7:r1            =  1.8566E-08  8:r1            =  2.0867E-08
 dt_intra                        
     7:tox1          =  1.0772E-09  8:tox1          =  1.0905E-09
 9:mc_cnr_round                  
     9:mc_cnr_rnd    = -0.2959      10:mc_cnr_rnd   = -0.3566    
 11:mc_cnr_round                 
     11:mc_cnr_rnd   = -7.3712E-02  12:mc_cnr_rnd   = -0.2961    
 13:mc_cnr_round                 
     13:mc_cnr_rnd   =  0.4854    
 14:mc_cnr_round                 
     14:mc_cnr_rnd   =  0.1024    

 ntrh=   3.1416 
 ntdh1=   3.1416 
 ntrl1=-6.785e-19
 ntdl=-2.334e-28
 ntdh2=   3.1416 
 ntrl2=-6.785e-19

          ***** job concluded

   *** monte carlo  index =          995 ***

       MONTE CARLO PARAMETER DEFINITIONS

 dvtn_intra                      
     1:vdvtn         =  2.4019E-02  5:vdvtn         = -2.1825E-03
     2:vdvtn         = -9.8978E-03
 dvtp_intra                      
     3:vdvtp         =  2.2682E-03  6:vdvtp         = -6.1640E-03
     4:vdvtp         =  8.6819E-04
 dr_intra                        
     7:r1            =  2.0489E-08  8:r1            =  2.1652E-08
 dt_intra                        
     7:tox1          =  9.8578E-10  8:tox1          =  8.3428E-10
 9:mc_cnr_round                  
     9:mc_cnr_rnd    =  0.2844      10:mc_cnr_rnd   =  0.2975    
 11:mc_cnr_round                 
     11:mc_cnr_rnd   = -0.7514      12:mc_cnr_rnd   = -0.2637    
 13:mc_cnr_round                 
     13:mc_cnr_rnd   = -4.2269E-02
 14:mc_cnr_round                 
     14:mc_cnr_rnd   = -0.1723    

 ntrh=   3.1416 
 ntdh1=   3.1416 
 ntrl1= 3.497e-19
 ntdl=  -4.3965a
 ntdh2=   3.1416 
 ntrl2= 3.497e-19

          ***** job concluded

   *** monte carlo  index =          996 ***

       MONTE CARLO PARAMETER DEFINITIONS

 dvtn_intra                      
     1:vdvtn         = -1.7169E-02  5:vdvtn         = -1.6156E-03
     2:vdvtn         =  1.0640E-02
 dvtp_intra                      
     3:vdvtp         =  1.1107E-02  6:vdvtp         = -1.3183E-02
     4:vdvtp         =  7.4870E-03
 dr_intra                        
     7:r1            =  2.3009E-08  8:r1            =  2.0024E-08
 dt_intra                        
     7:tox1          =  9.9375E-10  8:tox1          =  1.1140E-09
 9:mc_cnr_round                  
     9:mc_cnr_rnd    =  2.5980E-03  10:mc_cnr_rnd   =  0.4651    
 11:mc_cnr_round                 
     11:mc_cnr_rnd   = -0.2038      12:mc_cnr_rnd   = -0.2920    
 13:mc_cnr_round                 
     13:mc_cnr_rnd   = -0.1278    
 14:mc_cnr_round                 
     14:mc_cnr_rnd   = -0.6585    

 ntrh=   3.1416 
 ntdh1=   3.1416 
 ntrl1=-1.049e-19
 ntdl= 5.345e-20
 ntdh2=   3.1416 
 ntrl2=-1.049e-19

          ***** job concluded

   *** monte carlo  index =          997 ***

       MONTE CARLO PARAMETER DEFINITIONS

 dvtn_intra                      
     1:vdvtn         = -2.7025E-02  5:vdvtn         =  1.3521E-02
     2:vdvtn         =  3.7449E-02
 dvtp_intra                      
     3:vdvtp         =  2.4383E-02  6:vdvtp         = -1.1914E-02
     4:vdvtp         = -2.5834E-02
 dr_intra                        
     7:r1            =  2.3071E-08  8:r1            =  2.0425E-08
 dt_intra                        
     7:tox1          =  1.0179E-09  8:tox1          =  9.8551E-10
 9:mc_cnr_round                  
     9:mc_cnr_rnd    =  0.3861      10:mc_cnr_rnd   = -0.1499    
 11:mc_cnr_round                 
     11:mc_cnr_rnd   =  0.5780      12:mc_cnr_rnd   =  0.6746    
 13:mc_cnr_round                 
     13:mc_cnr_rnd   = -0.6551    
 14:mc_cnr_round                 
     14:mc_cnr_rnd   = -0.3242    

 ntrh=   3.1416 
 ntdh1=   3.1416 
 ntrl1=-3.399e-22
 ntdl= 5.404e-23
 ntdh2=   3.1416 
 ntrl2=-3.399e-22

          ***** job concluded

   *** monte carlo  index =          998 ***

       MONTE CARLO PARAMETER DEFINITIONS

 dvtn_intra                      
     1:vdvtn         =  1.3471E-02  5:vdvtn         =  8.5932E-03
     2:vdvtn         =  7.5748E-03
 dvtp_intra                      
     3:vdvtp         =  5.3764E-03  6:vdvtp         = -3.0281E-02
     4:vdvtp         = -1.7778E-02
 dr_intra                        
     7:r1            =  2.0147E-08  8:r1            =  2.1132E-08
 dt_intra                        
     7:tox1          =  1.0964E-09  8:tox1          =  1.0043E-09
 9:mc_cnr_round                  
     9:mc_cnr_rnd    = -0.2951      10:mc_cnr_rnd   =  0.1206    
 11:mc_cnr_round                 
     11:mc_cnr_rnd   =  0.5752      12:mc_cnr_rnd   =  3.2188E-02
 13:mc_cnr_round                 
     13:mc_cnr_rnd   = -7.8561E-02
 14:mc_cnr_round                 
     14:mc_cnr_rnd   = -1.8875E-02

 ntrh=   3.1416 
 ntdh1=   3.1416 
 ntrl1= 5.068e-19
 ntdl=-1.941e-20
 ntdh2=   3.1416 
 ntrl2= 5.068e-19

          ***** job concluded

   *** monte carlo  index =          999 ***

       MONTE CARLO PARAMETER DEFINITIONS

 dvtn_intra                      
     1:vdvtn         = -3.2506E-02  5:vdvtn         = -2.8068E-02
     2:vdvtn         = -2.0204E-02
 dvtp_intra                      
     3:vdvtp         =  2.8048E-03  6:vdvtp         = -8.2963E-03
     4:vdvtp         =  8.8532E-03
 dr_intra                        
     7:r1            =  2.3069E-08  8:r1            =  2.3092E-08
 dt_intra                        
     7:tox1          =  1.0352E-09  8:tox1          =  1.0577E-09
 9:mc_cnr_round                  
     9:mc_cnr_rnd    = -0.8429      10:mc_cnr_rnd   = -0.5922    
 11:mc_cnr_round                 
     11:mc_cnr_rnd   = -8.5585E-02  12:mc_cnr_rnd   =  1.9544E-02
 13:mc_cnr_round                 
     13:mc_cnr_rnd   =  8.9964E-02
 14:mc_cnr_round                 
     14:mc_cnr_rnd   = -0.1295    

 ntrh=   3.1416 
 ntdh1=   3.1416 
 ntrl1=   4.0174a
 ntdl= 3.061e-23
 ntdh2=   3.1416 
 ntrl2=   4.0174a

          ***** job concluded

   *** monte carlo  index =         1000 ***

       MONTE CARLO PARAMETER DEFINITIONS

 dvtn_intra                      
     1:vdvtn         = -6.1580E-02  5:vdvtn         =  1.2588E-02
     2:vdvtn         =  1.2503E-02
 dvtp_intra                      
     3:vdvtp         = -2.7818E-03  6:vdvtp         = -9.3603E-03
     4:vdvtp         = -1.8499E-02
 dr_intra                        
     7:r1            =  2.3932E-08  8:r1            =  1.8407E-08
 dt_intra                        
     7:tox1          =  1.0923E-09  8:tox1          =  1.1407E-09
 9:mc_cnr_round                  
     9:mc_cnr_rnd    =  0.1381      10:mc_cnr_rnd   =  0.2236    
 11:mc_cnr_round                 
     11:mc_cnr_rnd   = -0.6293      12:mc_cnr_rnd   = -0.1231    
 13:mc_cnr_round                 
     13:mc_cnr_rnd   =  0.4278    
 14:mc_cnr_round                 
     14:mc_cnr_rnd   =  0.5811    

 ntrh=   3.1416 
 ntdh1=   3.1416 
 ntrl1=-3.795e-20
 ntdl=-1.225e-22
 ntdh2=   3.1416 
 ntrl2=-3.795e-20

   meas_variable = ntrh
   mean  =   3.1416   varian = 1.974e-27
   sigma =  44.4311f  avgdev =  44.4534f
   max   =   3.1416   min    =   3.1416 
    1-sigma =  44.4311f median =   3.1416 

   meas_variable = ntdh1
   mean  =   3.1416   varian = 1.974e-27
   sigma =  44.4311f  avgdev =  44.4534f
   max   =   3.1416   min    =   3.1416 
    1-sigma =  44.4311f median =   3.1416 

   meas_variable = ntrl1
   mean  =  -9.3084a  varian =   0.     
   sigma = 175.5625a  avgdev =  27.0744a
   max   =   1.9220f  min    =  -4.8610f
    1-sigma = 175.5625a median =-9.207e-23

   meas_variable = ntdl
   mean  =   2.4970a  varian =   0.     
   sigma = 152.5166a  avgdev =  16.3517a
   max   =   3.1650f  min    =  -2.4690f
    1-sigma = 152.5166a median =-3.386e-24

   meas_variable = ntdh2
   mean  =   2.7214   varian = 823.0715m
   sigma = 907.2329m  avgdev = 692.3217m
   max   =   3.1419   min    = 587.2000m
    1-sigma = 907.2329m median =   3.1416 

   meas_variable = ntrl2
   mean  =  -9.3084a  varian =   0.     
   sigma = 175.5625a  avgdev =  27.0744a
   max   =   1.9220f  min    =  -4.8610f
    1-sigma = 175.5625a median =-9.207e-23

          ***** job concluded
1****** HSPICE -- I-2013.12-SP1-1 32-BIT (Mar 31 2014) RHEL32 ******            
 ******  
 ****summer 2017 necrl stt latch wite path monte carlo analysis****

 ****** job statistics summary tnom= 110.000 temp= 110.000 ******
  
  
 ******  Machine Information  ******
 CPU:
 model name	: Intel(R) Xeon(R) CPU           X5570  @ 2.93GHz
 cpu MHz	: 2926.143
  
 OS:
 Linux version 2.6.18-194.32.1.el5 (mockbuild@x86-006.build.bos.redhat.com) (gcc version 4.1.2 20080704 (Red Hat 4.1.2-48)) #1 SMP Mon Dec 20 10:52:42 EST 2010


  ******  HSPICE Threads Information  ******

  Command Line Threads Count :     1
  Available CPU Count        :    16
  Actual Threads Count       :     1


  ******  Circuit Statistics  ******
  # nodes       =      23 # elements   =      27
  # resistors   =       0 # capacitors =       0 # inductors   =       0
  # mutual_inds =       0 # vccs       =       0 # vcvs        =       0
  # cccs        =       0 # ccvs       =       0 # volt_srcs   =      11
  # curr_srcs   =       0 # diodes     =       0 # bjts        =       0
  # jfets       =       0 # mosfets    =       6 # U elements  =       0
  # T elements  =       0 # W elements =       0 # B elements  =       0
  # S elements  =       0 # P elements =       0 # va device   =      10
  # vector_srcs =       0 # N elements =       0


  ******  Runtime Statistics (seconds)  ******

  analysis           time    # points   tot. iter  conv.iter
  op point           0.00           1           0
  transient         47.89      901000     3181633      623670 rev=     79781
  readin             0.02
  errchk             0.01
  setup              0.00
  output             0.05


           peak memory used        124.52 megabytes
           total cpu time           48.33 seconds
           total elapsed time       77.97 seconds
           job started at     16:58:04 07/03/2017
           job ended   at     17:01:56 07/03/2017



>info:         ***** hspice job concluded
 lic: Release hspice token(s) 
 lic: total license checkout elapse time:        0.84(s)

			pVA malloc        0.11869 Mbytes         1359 times
			pVA calloc        3.44487 Mbytes         2970 times
			pVA realloc       0.00099 Mbytes           38 times
			pVA valloc        0.00000 Mbytes            0 times
			pVA alloca        0.00000 Mbytes            0 times

			pVA TOT-MEM       3.56455 Mbytes         4367 times
			pVA free                                 1077 times
			pVA strdup        0.00000 Mbytes            0 times


pVA concluded on Mon Jul  3 17:01:56 2017	GTM/In-use: 3.2500/0.3595 MB

